/*--------------------------------*- C++ -*----------------------------------*\
| =========                 |                                                 |
| \\      /  F ield         | OpenFOAM: The Open Source CFD Toolbox           |
|  \\    /   O peration     | Version:  2.3.0                                 |
|   \\  /    A nd           | Web:      www.OpenFOAM.org                      |
|    \\/     M anipulation  |                                                 |
\*---------------------------------------------------------------------------*/
FoamFile
{
    version     2.0;
    format      ascii;
    class       dictionary;
    location    "constant";
    object      thermophysicalProperties.water;
}
// * * * * * * * * * * * * * * * * * * * * * * * * * * * * * * * * * * * * * //

thermoType
{
    type            heRhoThermo;
    mixture         pureMixture;
    transport       const;
    thermo          hConst;
    //equationOfState perfectFluid;
    equationOfState rhoConst;
    specie          specie;
    energy          sensibleInternalEnergy; // sensibleEnthalpy
}

mixture
{
    specie
    {
        nMoles      1;
        molWeight   18;
    }
    equationOfState
    {
        R           3000;
        rho0        998.21;
        rho			998.21;
    }
    thermodynamics
    {
        Cp          4195;
        Hf          0;
    }
    transport
    {
        mu          1001.6e-6;
        Pr          6.991;
    }
    
    dpdt no;
}

dpdt no;


// ************************************************************************* //
