/*--------------------------------*- C++ -*----------------------------------*\
| =========                 |                                                 |
| \\      /  F ield         | OpenFOAM: The Open Source CFD Toolbox           |
|  \\    /   O peration     | Version:  4.x                                   |
|   \\  /    A nd           | Web:      www.OpenFOAM.org                      |
|    \\/     M anipulation  |                                                 |
\*---------------------------------------------------------------------------*/
FoamFile
{
    version     2.0;
    format      ascii;
    class       dictionary;
    location    "system";
    object      controlDict;
}
// * * * * * * * * * * * * * * * * * * * * * * * * * * * * * * * * * * * * * //

application     twoPhaseEulerFoam;

startFrom       latestTime;

startTime       0;

stopAt          endTime;

endTime         60;

deltaT          1e-4;

writeControl    adjustableRunTime;

writeInterval   0.1;

purgeWrite      0;

writeFormat     ascii;

writePrecision  6;

writeCompression uncompressed;

timeFormat      general;

timePrecision   6;

runTimeModifiable yes;

adjustTimeStep  yes;

maxCo           0.3;

maxDeltaT       0.005;

functions
{
    alpha_MRFZone
    {
        type            volRegion;
        libs ("libfieldFunctionObjects.so");
        log             true;
        writeFields     false;
        regionType      cellZone;
        name            rotor;
        operation       volAverage;
       // weightField     alpha1;
        fields
        (

            alpha.air
            

        );
    }

    d32_MRFZone
    {
        type            volRegion;
        libs ("libfieldFunctionObjects.so");
        log             true;
        writeFields     false;
        regionType      cellZone;
        name            rotor;
        operation       volAverage;
       // weightField     alpha1;
        fields
        (

            d32
            

        );
    }

}


// ************************************************************************* //
