/*--------------------------------*- C++ -*----------------------------------*\
| =========                 |                                                 |
| \\      /  F ield         | OpenFOAM: The Open Source CFD Toolbox           |
|  \\    /   O peration     | Version:  4.x                                   |
|   \\  /    A nd           | Web:      www.OpenFOAM.org                      |
|    \\/     M anipulation  |                                                 |
\*---------------------------------------------------------------------------*/
FoamFile
{
    version     2.0;
    format      ascii;
    class       dictionary;
    location    "system";
    object      topoSetDict;
}
// * * * * * * * * * * * * * * * * * * * * * * * * * * * * * * * * * * * * * //

actions
(
/*
    {
        name    MRFZone;
        type    cellSet;
        action  new;
        source  zoneToCell;
        sourceInfo
        {
            name MRFZone;
        }
    }
*/
    {
	    name    waterZone;
	    type    cellSet;
	    action  new;
	    source  cylinderToCell;
	    sourceInfo
	    {
	      cylinderToCell (0 0 0) (0 0 0.1666) 
	    }

    }

);


// ************************************************************************* //
