/*--------------------------------*- C++ -*----------------------------------*\
| =========                 |                                                 |
| \      /  F ield         | OpenFOAM: The Open Source CFD Toolbox           |
|  \    /   O peration     | Version:  2.1.x                                 |
|   \  /    A nd           | Web:      www.OpenFOAM.org                      |
|    \/     M anipulation  |                                                 |
\*---------------------------------------------------------------------------*/
FoamFile
{
	version		2.0;
	format		ascii;
	class		dictionary;
	object		blockMeshDict;
}
// * * * * * * * * * * * * * * * * * * * * * * * * * * * * * * * * * * * * //




convertToMeters 1.0;


vertices
(
	( 0.0975 0.0 0.0 )	 // a0h0 = 0
	( 0.0975 0.0 0.0 )	 // A0h0 = 1
	( 0.078 0.0 0.0 )	 // b0h0 = 2
	( 0.04441666666666667 0.0 0.0 )	 // c0h0 = 3
	( 0.035208333333333335 0.0 0.0 )	 // d0h0 = 4
	( 0.024375 0.0 0.0 )	 // e0h0 = 5
	( 0.013541666666666667 0.0 0.0 )	 // F0h0 = 6
	( 0.007989583333333333 0.0 0.0 )	 // m0h0 = 7
	( 0.0027083333333333334 0.0 0.0 )	 // n0h0 = 8

	( 0.08443747686898277 0.048749999999999995 0.0 )	 // a1h0 = 9
	( 0.06754998149518622 0.03899999999999999 0.0 )	 // b1h0 = 10
	( 0.03846596168475882 0.02220833333333333 0.0 )	 // c1h0 = 11
	( 0.030491311091577114 0.017604166666666664 0.0 )	 // d1h0 = 12
	( 0.021109369217245693 0.012187499999999999 0.0 )	 // e1h0 = 13
	( 0.011727427342914274 0.006770833333333333 0.0 )	 // F1h0 = 14
	( 0.005863713671457137 0.0033854166666666663 0.0 )	 // m1h0 = 15

	( 0.048750000000000016 0.08443747686898277 0.0 )	 // a2h0 = 16
	( 0.03900000000000001 0.0675499814951862 0.0 )	 // b2h0 = 17
	( 0.022208333333333337 0.03846596168475881 0.0 )	 // c2h0 = 18
	( 0.01760416666666667 0.03049131109157711 0.0 )	 // d2h0 = 19
	( 0.012187500000000004 0.021109369217245693 0.0 )	 // e2h0 = 20
	( 0.006770833333333335 0.011727427342914274 0.0 )	 // F2h0 = 21
	( 0.0033854166666666676 0.005863713671457137 0.0 )	 // m2h0 = 22

	( 5.970153145843347e-18 0.0975 0.0 )	 // a3h0 = 23
	( 5.970153145843347e-18 0.0975 0.0 )	 // A3h0 = 24
	( 4.776122516674678e-18 0.078 0.0 )	 // b3h0 = 25
	( 2.7197364331064135e-18 0.04441666666666667 0.0 )	 // c3h0 = 26
	( 2.1558886359989865e-18 0.035208333333333335 0.0 )	 // d3h0 = 27
	( 1.4925382864608367e-18 0.024375 0.0 )	 // e3h0 = 28
	( 8.291879369226871e-19 0.013541666666666667 0.0 )	 // F3h0 = 29
	( 4.892208827843853e-19 0.007989583333333333 0.0 )	 // m3h0 = 30
	( 1.6583758738453742e-19 0.0027083333333333334 0.0 )	 // n1h0 = 31

	( -0.04874999999999998 0.08443747686898277 0.0 )	 // a4h0 = 32
	( -0.038999999999999986 0.06754998149518622 0.0 )	 // b4h0 = 33
	( -0.022208333333333323 0.03846596168475882 0.0 )	 // c4h0 = 34
	( -0.01760416666666666 0.030491311091577114 0.0 )	 // d4h0 = 35
	( -0.012187499999999995 0.021109369217245693 0.0 )	 // e4h0 = 36
	( -0.006770833333333331 0.011727427342914274 0.0 )	 // F4h0 = 37
	( -0.0033854166666666655 0.005863713671457137 0.0 )	 // m4h0 = 38

	( -0.08443747686898277 0.048749999999999995 0.0 )	 // a5h0 = 39
	( -0.06754998149518622 0.03899999999999999 0.0 )	 // b5h0 = 40
	( -0.03846596168475882 0.02220833333333333 0.0 )	 // c5h0 = 41
	( -0.030491311091577114 0.017604166666666664 0.0 )	 // d5h0 = 42
	( -0.021109369217245693 0.012187499999999999 0.0 )	 // e5h0 = 43
	( -0.011727427342914274 0.006770833333333333 0.0 )	 // F5h0 = 44
	( -0.005863713671457137 0.0033854166666666663 0.0 )	 // m5h0 = 45

	( -0.0975 1.1940306291686694e-17 0.0 )	 // a6h0 = 46
	( -0.0975 1.1940306291686694e-17 0.0 )	 // A6h0 = 47
	( -0.078 9.552245033349355e-18 0.0 )	 // b6h0 = 48
	( -0.04441666666666667 5.439472866212827e-18 0.0 )	 // c6h0 = 49
	( -0.035208333333333335 4.311777271997973e-18 0.0 )	 // d6h0 = 50
	( -0.024375 2.9850765729216734e-18 0.0 )	 // e6h0 = 51
	( -0.013541666666666667 1.6583758738453742e-18 0.0 )	 // F6h0 = 52
	( -0.007989583333333333 9.784417655687706e-19 0.0 )	 // m6h0 = 53
	( -0.0027083333333333334 3.3167517476907485e-19 0.0 )	 // n2h0 = 54

	( -0.08443747686898277 -0.048750000000000016 0.0 )	 // a7h0 = 55
	( -0.0675499814951862 -0.03900000000000001 0.0 )	 // b7h0 = 56
	( -0.03846596168475881 -0.022208333333333337 0.0 )	 // c7h0 = 57
	( -0.03049131109157711 -0.01760416666666667 0.0 )	 // d7h0 = 58
	( -0.021109369217245693 -0.012187500000000004 0.0 )	 // e7h0 = 59
	( -0.011727427342914274 -0.006770833333333335 0.0 )	 // F7h0 = 60
	( -0.005863713671457137 -0.0033854166666666676 0.0 )	 // m7h0 = 61

	( -0.04875000000000004 -0.08443747686898274 0.0 )	 // a8h0 = 62
	( -0.039000000000000035 -0.06754998149518619 0.0 )	 // b8h0 = 63
	( -0.022208333333333354 -0.038465961684758805 0.0 )	 // c8h0 = 64
	( -0.017604166666666685 -0.030491311091577104 0.0 )	 // d8h0 = 65
	( -0.01218750000000001 -0.021109369217245686 0.0 )	 // e8h0 = 66
	( -0.00677083333333334 -0.01172742734291427 0.0 )	 // F8h0 = 67
	( -0.00338541666666667 -0.005863713671457135 0.0 )	 // m8h0 = 68

	( -1.791045943753004e-17 -0.0975 0.0 )	 // a9h0 = 69
	( -1.791045943753004e-17 -0.0975 0.0 )	 // A9h0 = 70
	( -1.4328367550024032e-17 -0.078 0.0 )	 // b9h0 = 71
	( -8.15920929931924e-18 -0.04441666666666667 0.0 )	 // c9h0 = 72
	( -6.467665907996959e-18 -0.035208333333333335 0.0 )	 // d9h0 = 73
	( -4.47761485938251e-18 -0.024375 0.0 )	 // e9h0 = 74
	( -2.487563810768061e-18 -0.013541666666666667 0.0 )	 // F9h0 = 75
	( -1.467662648353156e-18 -0.007989583333333333 0.0 )	 // m9h0 = 76
	( -4.975127621536122e-19 -0.0027083333333333334 0.0 )	 // n3h0 = 77

	( 0.048750000000000016 -0.08443747686898277 0.0 )	 // a10h0 = 78
	( 0.03900000000000001 -0.0675499814951862 0.0 )	 // b10h0 = 79
	( 0.022208333333333337 -0.03846596168475881 0.0 )	 // c10h0 = 80
	( 0.01760416666666667 -0.03049131109157711 0.0 )	 // d10h0 = 81
	( 0.012187500000000004 -0.021109369217245693 0.0 )	 // e10h0 = 82
	( 0.006770833333333335 -0.011727427342914274 0.0 )	 // F10h0 = 83
	( 0.0033854166666666676 -0.005863713671457137 0.0 )	 // m10h0 = 84

	( 0.08443747686898274 -0.04875000000000004 0.0 )	 // a11h0 = 85
	( 0.06754998149518619 -0.039000000000000035 0.0 )	 // b11h0 = 86
	( 0.038465961684758805 -0.022208333333333354 0.0 )	 // c11h0 = 87
	( 0.030491311091577104 -0.017604166666666685 0.0 )	 // d11h0 = 88
	( 0.021109369217245686 -0.01218750000000001 0.0 )	 // e11h0 = 89
	( 0.01172742734291427 -0.00677083333333334 0.0 )	 // F11h0 = 90
	( 0.005863713671457135 -0.00338541666666667 0.0 )	 // m11h0 = 91


	( 0.0975 0.0 0.052000000000000005 )	 // a0h1 = 92
	( 0.0975 0.0 0.052000000000000005 )	 // A0h1 = 93
	( 0.078 0.0 0.052000000000000005 )	 // b0h1 = 94
	( 0.04441666666666667 0.0 0.052000000000000005 )	 // c0h1 = 95
	( 0.035208333333333335 0.0 0.052000000000000005 )	 // d0h1 = 96
	( 0.024375 0.0 0.052000000000000005 )	 // e0h1 = 97
	( 0.013541666666666667 0.0 0.052000000000000005 )	 // F0h1 = 98
	( 0.007989583333333333 0.0 0.052000000000000005 )	 // m0h1 = 99
	( 0.0027083333333333334 0.0 0.052000000000000005 )	 // n0h1 = 100

	( 0.08443747686898277 0.048749999999999995 0.052000000000000005 )	 // a1h1 = 101
	( 0.06754998149518622 0.03899999999999999 0.052000000000000005 )	 // b1h1 = 102
	( 0.03846596168475882 0.02220833333333333 0.052000000000000005 )	 // c1h1 = 103
	( 0.030491311091577114 0.017604166666666664 0.052000000000000005 )	 // d1h1 = 104
	( 0.021109369217245693 0.012187499999999999 0.052000000000000005 )	 // e1h1 = 105
	( 0.011727427342914274 0.006770833333333333 0.052000000000000005 )	 // F1h1 = 106
	( 0.005863713671457137 0.0033854166666666663 0.052000000000000005 )	 // m1h1 = 107

	( 0.048750000000000016 0.08443747686898277 0.052000000000000005 )	 // a2h1 = 108
	( 0.03900000000000001 0.0675499814951862 0.052000000000000005 )	 // b2h1 = 109
	( 0.022208333333333337 0.03846596168475881 0.052000000000000005 )	 // c2h1 = 110
	( 0.01760416666666667 0.03049131109157711 0.052000000000000005 )	 // d2h1 = 111
	( 0.012187500000000004 0.021109369217245693 0.052000000000000005 )	 // e2h1 = 112
	( 0.006770833333333335 0.011727427342914274 0.052000000000000005 )	 // F2h1 = 113
	( 0.0033854166666666676 0.005863713671457137 0.052000000000000005 )	 // m2h1 = 114

	( 5.970153145843347e-18 0.0975 0.052000000000000005 )	 // a3h1 = 115
	( 5.970153145843347e-18 0.0975 0.052000000000000005 )	 // A3h1 = 116
	( 4.776122516674678e-18 0.078 0.052000000000000005 )	 // b3h1 = 117
	( 2.7197364331064135e-18 0.04441666666666667 0.052000000000000005 )	 // c3h1 = 118
	( 2.1558886359989865e-18 0.035208333333333335 0.052000000000000005 )	 // d3h1 = 119
	( 1.4925382864608367e-18 0.024375 0.052000000000000005 )	 // e3h1 = 120
	( 8.291879369226871e-19 0.013541666666666667 0.052000000000000005 )	 // F3h1 = 121
	( 4.892208827843853e-19 0.007989583333333333 0.052000000000000005 )	 // m3h1 = 122
	( 1.6583758738453742e-19 0.0027083333333333334 0.052000000000000005 )	 // n1h1 = 123

	( -0.04874999999999998 0.08443747686898277 0.052000000000000005 )	 // a4h1 = 124
	( -0.038999999999999986 0.06754998149518622 0.052000000000000005 )	 // b4h1 = 125
	( -0.022208333333333323 0.03846596168475882 0.052000000000000005 )	 // c4h1 = 126
	( -0.01760416666666666 0.030491311091577114 0.052000000000000005 )	 // d4h1 = 127
	( -0.012187499999999995 0.021109369217245693 0.052000000000000005 )	 // e4h1 = 128
	( -0.006770833333333331 0.011727427342914274 0.052000000000000005 )	 // F4h1 = 129
	( -0.0033854166666666655 0.005863713671457137 0.052000000000000005 )	 // m4h1 = 130

	( -0.08443747686898277 0.048749999999999995 0.052000000000000005 )	 // a5h1 = 131
	( -0.06754998149518622 0.03899999999999999 0.052000000000000005 )	 // b5h1 = 132
	( -0.03846596168475882 0.02220833333333333 0.052000000000000005 )	 // c5h1 = 133
	( -0.030491311091577114 0.017604166666666664 0.052000000000000005 )	 // d5h1 = 134
	( -0.021109369217245693 0.012187499999999999 0.052000000000000005 )	 // e5h1 = 135
	( -0.011727427342914274 0.006770833333333333 0.052000000000000005 )	 // F5h1 = 136
	( -0.005863713671457137 0.0033854166666666663 0.052000000000000005 )	 // m5h1 = 137

	( -0.0975 1.1940306291686694e-17 0.052000000000000005 )	 // a6h1 = 138
	( -0.0975 1.1940306291686694e-17 0.052000000000000005 )	 // A6h1 = 139
	( -0.078 9.552245033349355e-18 0.052000000000000005 )	 // b6h1 = 140
	( -0.04441666666666667 5.439472866212827e-18 0.052000000000000005 )	 // c6h1 = 141
	( -0.035208333333333335 4.311777271997973e-18 0.052000000000000005 )	 // d6h1 = 142
	( -0.024375 2.9850765729216734e-18 0.052000000000000005 )	 // e6h1 = 143
	( -0.013541666666666667 1.6583758738453742e-18 0.052000000000000005 )	 // F6h1 = 144
	( -0.007989583333333333 9.784417655687706e-19 0.052000000000000005 )	 // m6h1 = 145
	( -0.0027083333333333334 3.3167517476907485e-19 0.052000000000000005 )	 // n2h1 = 146

	( -0.08443747686898277 -0.048750000000000016 0.052000000000000005 )	 // a7h1 = 147
	( -0.0675499814951862 -0.03900000000000001 0.052000000000000005 )	 // b7h1 = 148
	( -0.03846596168475881 -0.022208333333333337 0.052000000000000005 )	 // c7h1 = 149
	( -0.03049131109157711 -0.01760416666666667 0.052000000000000005 )	 // d7h1 = 150
	( -0.021109369217245693 -0.012187500000000004 0.052000000000000005 )	 // e7h1 = 151
	( -0.011727427342914274 -0.006770833333333335 0.052000000000000005 )	 // F7h1 = 152
	( -0.005863713671457137 -0.0033854166666666676 0.052000000000000005 )	 // m7h1 = 153

	( -0.04875000000000004 -0.08443747686898274 0.052000000000000005 )	 // a8h1 = 154
	( -0.039000000000000035 -0.06754998149518619 0.052000000000000005 )	 // b8h1 = 155
	( -0.022208333333333354 -0.038465961684758805 0.052000000000000005 )	 // c8h1 = 156
	( -0.017604166666666685 -0.030491311091577104 0.052000000000000005 )	 // d8h1 = 157
	( -0.01218750000000001 -0.021109369217245686 0.052000000000000005 )	 // e8h1 = 158
	( -0.00677083333333334 -0.01172742734291427 0.052000000000000005 )	 // F8h1 = 159
	( -0.00338541666666667 -0.005863713671457135 0.052000000000000005 )	 // m8h1 = 160

	( -1.791045943753004e-17 -0.0975 0.052000000000000005 )	 // a9h1 = 161
	( -1.791045943753004e-17 -0.0975 0.052000000000000005 )	 // A9h1 = 162
	( -1.4328367550024032e-17 -0.078 0.052000000000000005 )	 // b9h1 = 163
	( -8.15920929931924e-18 -0.04441666666666667 0.052000000000000005 )	 // c9h1 = 164
	( -6.467665907996959e-18 -0.035208333333333335 0.052000000000000005 )	 // d9h1 = 165
	( -4.47761485938251e-18 -0.024375 0.052000000000000005 )	 // e9h1 = 166
	( -2.487563810768061e-18 -0.013541666666666667 0.052000000000000005 )	 // F9h1 = 167
	( -1.467662648353156e-18 -0.007989583333333333 0.052000000000000005 )	 // m9h1 = 168
	( -4.975127621536122e-19 -0.0027083333333333334 0.052000000000000005 )	 // n3h1 = 169

	( 0.048750000000000016 -0.08443747686898277 0.052000000000000005 )	 // a10h1 = 170
	( 0.03900000000000001 -0.0675499814951862 0.052000000000000005 )	 // b10h1 = 171
	( 0.022208333333333337 -0.03846596168475881 0.052000000000000005 )	 // c10h1 = 172
	( 0.01760416666666667 -0.03049131109157711 0.052000000000000005 )	 // d10h1 = 173
	( 0.012187500000000004 -0.021109369217245693 0.052000000000000005 )	 // e10h1 = 174
	( 0.006770833333333335 -0.011727427342914274 0.052000000000000005 )	 // F10h1 = 175
	( 0.0033854166666666676 -0.005863713671457137 0.052000000000000005 )	 // m10h1 = 176

	( 0.08443747686898274 -0.04875000000000004 0.052000000000000005 )	 // a11h1 = 177
	( 0.06754998149518619 -0.039000000000000035 0.052000000000000005 )	 // b11h1 = 178
	( 0.038465961684758805 -0.022208333333333354 0.052000000000000005 )	 // c11h1 = 179
	( 0.030491311091577104 -0.017604166666666685 0.052000000000000005 )	 // d11h1 = 180
	( 0.021109369217245686 -0.01218750000000001 0.052000000000000005 )	 // e11h1 = 181
	( 0.01172742734291427 -0.00677083333333334 0.052000000000000005 )	 // F11h1 = 182
	( 0.005863713671457135 -0.00338541666666667 0.052000000000000005 )	 // m11h1 = 183


	( 0.0975 0.0 0.0585 )	 // a0h2 = 184
	( 0.0975 0.0 0.0585 )	 // A0h2 = 185
	( 0.078 0.0 0.0585 )	 // b0h2 = 186
	( 0.04441666666666667 0.0 0.0585 )	 // c0h2 = 187
	( 0.035208333333333335 0.0 0.0585 )	 // d0h2 = 188
	( 0.024375 0.0 0.0585 )	 // e0h2 = 189
	( 0.013541666666666667 0.0 0.0585 )	 // F0h2 = 190
	( 0.007989583333333333 0.0 0.0585 )	 // m0h2 = 191
	( 0.0027083333333333334 0.0 0.0585 )	 // n0h2 = 192

	( 0.08443747686898277 0.048749999999999995 0.0585 )	 // a1h2 = 193
	( 0.06754998149518622 0.03899999999999999 0.0585 )	 // b1h2 = 194
	( 0.03846596168475882 0.02220833333333333 0.0585 )	 // c1h2 = 195
	( 0.030491311091577114 0.017604166666666664 0.0585 )	 // d1h2 = 196
	( 0.021109369217245693 0.012187499999999999 0.0585 )	 // e1h2 = 197
	( 0.011727427342914274 0.006770833333333333 0.0585 )	 // F1h2 = 198
	( 0.005863713671457137 0.0033854166666666663 0.0585 )	 // m1h2 = 199

	( 0.048750000000000016 0.08443747686898277 0.0585 )	 // a2h2 = 200
	( 0.03900000000000001 0.0675499814951862 0.0585 )	 // b2h2 = 201
	( 0.022208333333333337 0.03846596168475881 0.0585 )	 // c2h2 = 202
	( 0.01760416666666667 0.03049131109157711 0.0585 )	 // d2h2 = 203
	( 0.012187500000000004 0.021109369217245693 0.0585 )	 // e2h2 = 204
	( 0.006770833333333335 0.011727427342914274 0.0585 )	 // F2h2 = 205
	( 0.0033854166666666676 0.005863713671457137 0.0585 )	 // m2h2 = 206

	( 5.970153145843347e-18 0.0975 0.0585 )	 // a3h2 = 207
	( 5.970153145843347e-18 0.0975 0.0585 )	 // A3h2 = 208
	( 4.776122516674678e-18 0.078 0.0585 )	 // b3h2 = 209
	( 2.7197364331064135e-18 0.04441666666666667 0.0585 )	 // c3h2 = 210
	( 2.1558886359989865e-18 0.035208333333333335 0.0585 )	 // d3h2 = 211
	( 1.4925382864608367e-18 0.024375 0.0585 )	 // e3h2 = 212
	( 8.291879369226871e-19 0.013541666666666667 0.0585 )	 // F3h2 = 213
	( 4.892208827843853e-19 0.007989583333333333 0.0585 )	 // m3h2 = 214
	( 1.6583758738453742e-19 0.0027083333333333334 0.0585 )	 // n1h2 = 215

	( -0.04874999999999998 0.08443747686898277 0.0585 )	 // a4h2 = 216
	( -0.038999999999999986 0.06754998149518622 0.0585 )	 // b4h2 = 217
	( -0.022208333333333323 0.03846596168475882 0.0585 )	 // c4h2 = 218
	( -0.01760416666666666 0.030491311091577114 0.0585 )	 // d4h2 = 219
	( -0.012187499999999995 0.021109369217245693 0.0585 )	 // e4h2 = 220
	( -0.006770833333333331 0.011727427342914274 0.0585 )	 // F4h2 = 221
	( -0.0033854166666666655 0.005863713671457137 0.0585 )	 // m4h2 = 222

	( -0.08443747686898277 0.048749999999999995 0.0585 )	 // a5h2 = 223
	( -0.06754998149518622 0.03899999999999999 0.0585 )	 // b5h2 = 224
	( -0.03846596168475882 0.02220833333333333 0.0585 )	 // c5h2 = 225
	( -0.030491311091577114 0.017604166666666664 0.0585 )	 // d5h2 = 226
	( -0.021109369217245693 0.012187499999999999 0.0585 )	 // e5h2 = 227
	( -0.011727427342914274 0.006770833333333333 0.0585 )	 // F5h2 = 228
	( -0.005863713671457137 0.0033854166666666663 0.0585 )	 // m5h2 = 229

	( -0.0975 1.1940306291686694e-17 0.0585 )	 // a6h2 = 230
	( -0.0975 1.1940306291686694e-17 0.0585 )	 // A6h2 = 231
	( -0.078 9.552245033349355e-18 0.0585 )	 // b6h2 = 232
	( -0.04441666666666667 5.439472866212827e-18 0.0585 )	 // c6h2 = 233
	( -0.035208333333333335 4.311777271997973e-18 0.0585 )	 // d6h2 = 234
	( -0.024375 2.9850765729216734e-18 0.0585 )	 // e6h2 = 235
	( -0.013541666666666667 1.6583758738453742e-18 0.0585 )	 // F6h2 = 236
	( -0.007989583333333333 9.784417655687706e-19 0.0585 )	 // m6h2 = 237
	( -0.0027083333333333334 3.3167517476907485e-19 0.0585 )	 // n2h2 = 238

	( -0.08443747686898277 -0.048750000000000016 0.0585 )	 // a7h2 = 239
	( -0.0675499814951862 -0.03900000000000001 0.0585 )	 // b7h2 = 240
	( -0.03846596168475881 -0.022208333333333337 0.0585 )	 // c7h2 = 241
	( -0.03049131109157711 -0.01760416666666667 0.0585 )	 // d7h2 = 242
	( -0.021109369217245693 -0.012187500000000004 0.0585 )	 // e7h2 = 243
	( -0.011727427342914274 -0.006770833333333335 0.0585 )	 // F7h2 = 244
	( -0.005863713671457137 -0.0033854166666666676 0.0585 )	 // m7h2 = 245

	( -0.04875000000000004 -0.08443747686898274 0.0585 )	 // a8h2 = 246
	( -0.039000000000000035 -0.06754998149518619 0.0585 )	 // b8h2 = 247
	( -0.022208333333333354 -0.038465961684758805 0.0585 )	 // c8h2 = 248
	( -0.017604166666666685 -0.030491311091577104 0.0585 )	 // d8h2 = 249
	( -0.01218750000000001 -0.021109369217245686 0.0585 )	 // e8h2 = 250
	( -0.00677083333333334 -0.01172742734291427 0.0585 )	 // F8h2 = 251
	( -0.00338541666666667 -0.005863713671457135 0.0585 )	 // m8h2 = 252

	( -1.791045943753004e-17 -0.0975 0.0585 )	 // a9h2 = 253
	( -1.791045943753004e-17 -0.0975 0.0585 )	 // A9h2 = 254
	( -1.4328367550024032e-17 -0.078 0.0585 )	 // b9h2 = 255
	( -8.15920929931924e-18 -0.04441666666666667 0.0585 )	 // c9h2 = 256
	( -6.467665907996959e-18 -0.035208333333333335 0.0585 )	 // d9h2 = 257
	( -4.47761485938251e-18 -0.024375 0.0585 )	 // e9h2 = 258
	( -2.487563810768061e-18 -0.013541666666666667 0.0585 )	 // F9h2 = 259
	( -1.467662648353156e-18 -0.007989583333333333 0.0585 )	 // m9h2 = 260
	( -4.975127621536122e-19 -0.0027083333333333334 0.0585 )	 // n3h2 = 261

	( 0.048750000000000016 -0.08443747686898277 0.0585 )	 // a10h2 = 262
	( 0.03900000000000001 -0.0675499814951862 0.0585 )	 // b10h2 = 263
	( 0.022208333333333337 -0.03846596168475881 0.0585 )	 // c10h2 = 264
	( 0.01760416666666667 -0.03049131109157711 0.0585 )	 // d10h2 = 265
	( 0.012187500000000004 -0.021109369217245693 0.0585 )	 // e10h2 = 266
	( 0.006770833333333335 -0.011727427342914274 0.0585 )	 // F10h2 = 267
	( 0.0033854166666666676 -0.005863713671457137 0.0585 )	 // m10h2 = 268

	( 0.08443747686898274 -0.04875000000000004 0.0585 )	 // a11h2 = 269
	( 0.06754998149518619 -0.039000000000000035 0.0585 )	 // b11h2 = 270
	( 0.038465961684758805 -0.022208333333333354 0.0585 )	 // c11h2 = 271
	( 0.030491311091577104 -0.017604166666666685 0.0585 )	 // d11h2 = 272
	( 0.021109369217245686 -0.01218750000000001 0.0585 )	 // e11h2 = 273
	( 0.01172742734291427 -0.00677083333333334 0.0585 )	 // F11h2 = 274
	( 0.005863713671457135 -0.00338541666666667 0.0585 )	 // m11h2 = 275


	( 0.0975 0.0 0.065 )	 // a0h3 = 276
	( 0.0975 0.0 0.065 )	 // A0h3 = 277
	( 0.078 0.0 0.065 )	 // b0h3 = 278
	( 0.04441666666666667 0.0 0.065 )	 // c0h3 = 279
	( 0.035208333333333335 0.0 0.065 )	 // d0h3 = 280
	( 0.024375 0.0 0.065 )	 // e0h3 = 281
	( 0.024375 0.0 0.065 )	 // E0h3 = 282
	( 0.013541666666666667 0.0 0.065 )	 // F0h3 = 283
	( 0.013541666666666667 0.0 0.065 )	 // f0h3 = 284
	( 0.004875 0.0 0.065 )	 // s0h3 = 285
	( 0.007989583333333333 0.0 0.065 )	 // m0h3 = 286
	( 0.0027083333333333334 0.0 0.065 )	 // n0h3 = 287

	( 0.08443747686898277 0.048749999999999995 0.065 )	 // a1h3 = 288
	( 0.06754998149518622 0.03899999999999999 0.065 )	 // b1h3 = 289
	( 0.03846596168475882 0.02220833333333333 0.065 )	 // c1h3 = 290
	( 0.030491311091577114 0.017604166666666664 0.065 )	 // d1h3 = 291
	( 0.021109369217245693 0.012187499999999999 0.065 )	 // e1h3 = 292
	( 0.011727427342914274 0.006770833333333333 0.065 )	 // F1h3 = 293
	( 0.011727427342914274 0.006770833333333333 0.065 )	 // f1h3 = 294
	( 0.004221873843449139 0.0024374999999999996 0.065 )	 // s1h3 = 295
	( 0.005863713671457137 0.0033854166666666663 0.065 )	 // m1h3 = 296

	( 0.048750000000000016 0.08443747686898277 0.065 )	 // a2h3 = 297
	( 0.03900000000000001 0.0675499814951862 0.065 )	 // b2h3 = 298
	( 0.022208333333333337 0.03846596168475881 0.065 )	 // c2h3 = 299
	( 0.01760416666666667 0.03049131109157711 0.065 )	 // d2h3 = 300
	( 0.012187500000000004 0.021109369217245693 0.065 )	 // e2h3 = 301
	( 0.012187500000000004 0.021109369217245693 0.065 )	 // E2h3 = 302
	( 0.006770833333333335 0.011727427342914274 0.065 )	 // F2h3 = 303
	( 0.006770833333333335 0.011727427342914274 0.065 )	 // f2h3 = 304
	( 0.0024375000000000004 0.004221873843449138 0.065 )	 // s2h3 = 305
	( 0.0033854166666666676 0.005863713671457137 0.065 )	 // m2h3 = 306

	( 5.970153145843347e-18 0.0975 0.065 )	 // a3h3 = 307
	( 5.970153145843347e-18 0.0975 0.065 )	 // A3h3 = 308
	( 4.776122516674678e-18 0.078 0.065 )	 // b3h3 = 309
	( 2.7197364331064135e-18 0.04441666666666667 0.065 )	 // c3h3 = 310
	( 2.1558886359989865e-18 0.035208333333333335 0.065 )	 // d3h3 = 311
	( 1.4925382864608367e-18 0.024375 0.065 )	 // e3h3 = 312
	( 8.291879369226871e-19 0.013541666666666667 0.065 )	 // F3h3 = 313
	( 8.291879369226871e-19 0.013541666666666667 0.065 )	 // f3h3 = 314
	( 2.9850765729216736e-19 0.004875 0.065 )	 // s3h3 = 315
	( 4.892208827843853e-19 0.007989583333333333 0.065 )	 // m3h3 = 316
	( 1.6583758738453742e-19 0.0027083333333333334 0.065 )	 // n1h3 = 317

	( -0.04874999999999998 0.08443747686898277 0.065 )	 // a4h3 = 318
	( -0.038999999999999986 0.06754998149518622 0.065 )	 // b4h3 = 319
	( -0.022208333333333323 0.03846596168475882 0.065 )	 // c4h3 = 320
	( -0.01760416666666666 0.030491311091577114 0.065 )	 // d4h3 = 321
	( -0.012187499999999995 0.021109369217245693 0.065 )	 // e4h3 = 322
	( -0.012187499999999995 0.021109369217245693 0.065 )	 // E4h3 = 323
	( -0.006770833333333331 0.011727427342914274 0.065 )	 // F4h3 = 324
	( -0.006770833333333331 0.011727427342914274 0.065 )	 // f4h3 = 325
	( -0.002437499999999999 0.004221873843449139 0.065 )	 // s4h3 = 326
	( -0.0033854166666666655 0.005863713671457137 0.065 )	 // m4h3 = 327

	( -0.08443747686898277 0.048749999999999995 0.065 )	 // a5h3 = 328
	( -0.06754998149518622 0.03899999999999999 0.065 )	 // b5h3 = 329
	( -0.03846596168475882 0.02220833333333333 0.065 )	 // c5h3 = 330
	( -0.030491311091577114 0.017604166666666664 0.065 )	 // d5h3 = 331
	( -0.021109369217245693 0.012187499999999999 0.065 )	 // e5h3 = 332
	( -0.011727427342914274 0.006770833333333333 0.065 )	 // F5h3 = 333
	( -0.011727427342914274 0.006770833333333333 0.065 )	 // f5h3 = 334
	( -0.004221873843449139 0.0024374999999999996 0.065 )	 // s5h3 = 335
	( -0.005863713671457137 0.0033854166666666663 0.065 )	 // m5h3 = 336

	( -0.0975 1.1940306291686694e-17 0.065 )	 // a6h3 = 337
	( -0.0975 1.1940306291686694e-17 0.065 )	 // A6h3 = 338
	( -0.078 9.552245033349355e-18 0.065 )	 // b6h3 = 339
	( -0.04441666666666667 5.439472866212827e-18 0.065 )	 // c6h3 = 340
	( -0.035208333333333335 4.311777271997973e-18 0.065 )	 // d6h3 = 341
	( -0.024375 2.9850765729216734e-18 0.065 )	 // e6h3 = 342
	( -0.024375 2.9850765729216734e-18 0.065 )	 // E6h3 = 343
	( -0.013541666666666667 1.6583758738453742e-18 0.065 )	 // F6h3 = 344
	( -0.013541666666666667 1.6583758738453742e-18 0.065 )	 // f6h3 = 345
	( -0.004875 5.970153145843347e-19 0.065 )	 // s6h3 = 346
	( -0.007989583333333333 9.784417655687706e-19 0.065 )	 // m6h3 = 347
	( -0.0027083333333333334 3.3167517476907485e-19 0.065 )	 // n2h3 = 348

	( -0.08443747686898277 -0.048750000000000016 0.065 )	 // a7h3 = 349
	( -0.0675499814951862 -0.03900000000000001 0.065 )	 // b7h3 = 350
	( -0.03846596168475881 -0.022208333333333337 0.065 )	 // c7h3 = 351
	( -0.03049131109157711 -0.01760416666666667 0.065 )	 // d7h3 = 352
	( -0.021109369217245693 -0.012187500000000004 0.065 )	 // e7h3 = 353
	( -0.011727427342914274 -0.006770833333333335 0.065 )	 // F7h3 = 354
	( -0.011727427342914274 -0.006770833333333335 0.065 )	 // f7h3 = 355
	( -0.004221873843449138 -0.0024375000000000004 0.065 )	 // s7h3 = 356
	( -0.005863713671457137 -0.0033854166666666676 0.065 )	 // m7h3 = 357

	( -0.04875000000000004 -0.08443747686898274 0.065 )	 // a8h3 = 358
	( -0.039000000000000035 -0.06754998149518619 0.065 )	 // b8h3 = 359
	( -0.022208333333333354 -0.038465961684758805 0.065 )	 // c8h3 = 360
	( -0.017604166666666685 -0.030491311091577104 0.065 )	 // d8h3 = 361
	( -0.01218750000000001 -0.021109369217245686 0.065 )	 // e8h3 = 362
	( -0.01218750000000001 -0.021109369217245686 0.065 )	 // E8h3 = 363
	( -0.00677083333333334 -0.01172742734291427 0.065 )	 // F8h3 = 364
	( -0.00677083333333334 -0.01172742734291427 0.065 )	 // f8h3 = 365
	( -0.002437500000000002 -0.004221873843449137 0.065 )	 // s8h3 = 366
	( -0.00338541666666667 -0.005863713671457135 0.065 )	 // m8h3 = 367

	( -1.791045943753004e-17 -0.0975 0.065 )	 // a9h3 = 368
	( -1.791045943753004e-17 -0.0975 0.065 )	 // A9h3 = 369
	( -1.4328367550024032e-17 -0.078 0.065 )	 // b9h3 = 370
	( -8.15920929931924e-18 -0.04441666666666667 0.065 )	 // c9h3 = 371
	( -6.467665907996959e-18 -0.035208333333333335 0.065 )	 // d9h3 = 372
	( -4.47761485938251e-18 -0.024375 0.065 )	 // e9h3 = 373
	( -2.487563810768061e-18 -0.013541666666666667 0.065 )	 // F9h3 = 374
	( -2.487563810768061e-18 -0.013541666666666667 0.065 )	 // f9h3 = 375
	( -8.95522971876502e-19 -0.004875 0.065 )	 // s9h3 = 376
	( -1.467662648353156e-18 -0.007989583333333333 0.065 )	 // m9h3 = 377
	( -4.975127621536122e-19 -0.0027083333333333334 0.065 )	 // n3h3 = 378

	( 0.048750000000000016 -0.08443747686898277 0.065 )	 // a10h3 = 379
	( 0.03900000000000001 -0.0675499814951862 0.065 )	 // b10h3 = 380
	( 0.022208333333333337 -0.03846596168475881 0.065 )	 // c10h3 = 381
	( 0.01760416666666667 -0.03049131109157711 0.065 )	 // d10h3 = 382
	( 0.012187500000000004 -0.021109369217245693 0.065 )	 // e10h3 = 383
	( 0.012187500000000004 -0.021109369217245693 0.065 )	 // E10h3 = 384
	( 0.006770833333333335 -0.011727427342914274 0.065 )	 // F10h3 = 385
	( 0.006770833333333335 -0.011727427342914274 0.065 )	 // f10h3 = 386
	( 0.0024375000000000004 -0.004221873843449138 0.065 )	 // s10h3 = 387
	( 0.0033854166666666676 -0.005863713671457137 0.065 )	 // m10h3 = 388

	( 0.08443747686898274 -0.04875000000000004 0.065 )	 // a11h3 = 389
	( 0.06754998149518619 -0.039000000000000035 0.065 )	 // b11h3 = 390
	( 0.038465961684758805 -0.022208333333333354 0.065 )	 // c11h3 = 391
	( 0.030491311091577104 -0.017604166666666685 0.065 )	 // d11h3 = 392
	( 0.021109369217245686 -0.01218750000000001 0.065 )	 // e11h3 = 393
	( 0.01172742734291427 -0.00677083333333334 0.065 )	 // F11h3 = 394
	( 0.01172742734291427 -0.00677083333333334 0.065 )	 // f11h3 = 395
	( 0.004221873843449137 -0.002437500000000002 0.065 )	 // s11h3 = 396
	( 0.005863713671457135 -0.00338541666666667 0.065 )	 // m11h3 = 397


	( 0.0975 0.0 0.07150000000000001 )	 // a0h4 = 398
	( 0.0975 0.0 0.07150000000000001 )	 // A0h4 = 399
	( 0.078 0.0 0.07150000000000001 )	 // b0h4 = 400
	( 0.04441666666666667 0.0 0.07150000000000001 )	 // c0h4 = 401
	( 0.035208333333333335 0.0 0.07150000000000001 )	 // d0h4 = 402
	( 0.024375 0.0 0.07150000000000001 )	 // e0h4 = 403
	( 0.013541666666666667 0.0 0.07150000000000001 )	 // f0h4 = 404
	( 0.004875 0.0 0.07150000000000001 )	 // s0h4 = 405

	( 0.08443747686898277 0.048749999999999995 0.07150000000000001 )	 // a1h4 = 406
	( 0.06754998149518622 0.03899999999999999 0.07150000000000001 )	 // b1h4 = 407
	( 0.03846596168475882 0.02220833333333333 0.07150000000000001 )	 // c1h4 = 408
	( 0.030491311091577114 0.017604166666666664 0.07150000000000001 )	 // d1h4 = 409
	( 0.021109369217245693 0.012187499999999999 0.07150000000000001 )	 // e1h4 = 410
	( 0.011727427342914274 0.006770833333333333 0.07150000000000001 )	 // f1h4 = 411
	( 0.004221873843449139 0.0024374999999999996 0.07150000000000001 )	 // s1h4 = 412

	( 0.048750000000000016 0.08443747686898277 0.07150000000000001 )	 // a2h4 = 413
	( 0.03900000000000001 0.0675499814951862 0.07150000000000001 )	 // b2h4 = 414
	( 0.022208333333333337 0.03846596168475881 0.07150000000000001 )	 // c2h4 = 415
	( 0.01760416666666667 0.03049131109157711 0.07150000000000001 )	 // d2h4 = 416
	( 0.012187500000000004 0.021109369217245693 0.07150000000000001 )	 // e2h4 = 417
	( 0.006770833333333335 0.011727427342914274 0.07150000000000001 )	 // f2h4 = 418
	( 0.0024375000000000004 0.004221873843449138 0.07150000000000001 )	 // s2h4 = 419

	( 5.970153145843347e-18 0.0975 0.07150000000000001 )	 // a3h4 = 420
	( 5.970153145843347e-18 0.0975 0.07150000000000001 )	 // A3h4 = 421
	( 4.776122516674678e-18 0.078 0.07150000000000001 )	 // b3h4 = 422
	( 2.7197364331064135e-18 0.04441666666666667 0.07150000000000001 )	 // c3h4 = 423
	( 2.1558886359989865e-18 0.035208333333333335 0.07150000000000001 )	 // d3h4 = 424
	( 1.4925382864608367e-18 0.024375 0.07150000000000001 )	 // e3h4 = 425
	( 8.291879369226871e-19 0.013541666666666667 0.07150000000000001 )	 // f3h4 = 426