/*--------------------------------*- C++ -*----------------------------------*\
| =========                 |                                                 |
| \\      /  F ield         | OpenFOAM: The Open Source CFD Toolbox           |
|  \\    /   O peration     | Version:  4.0                                   |
|   \\  /    A nd           | Web:      www.OpenFOAM.org                      |
|    \\/     M anipulation  |                                                 |
\*---------------------------------------------------------------------------*/
FoamFile
{
    version     2.0;
    format      ascii;
    class       volScalarField;
    location    "6.200012727337";
    object      moment.2.populationBalance;
}
// * * * * * * * * * * * * * * * * * * * * * * * * * * * * * * * * * * * * * //

dimensions      [0 -1 0 0 0 0 0];

internalField   uniform 1.27234502470387E-07;

boundaryField
{
    inletBottom
    {
        type            fixedValue;
        value           uniform 1.27234502470387E-07;
    }
    inletTop
    {
        type            fixedValue;
        value           uniform 1.27234502470387E-07;
    }
    outlet
    {
        type            zeroGradient;
    }
     impeller
    {
        type            zeroGradient;
    }
    sparger
    {
        type            zeroGradient;
    }
    vessel
    {
        type            zeroGradient;
    }
    shaft
    {
        type            zeroGradient;
    }
    heater
    {
        type            zeroGradient;
    }
}
}


// ************************************************************************* //
