/*--------------------------------*- C++ -*----------------------------------*\
| =========                 |                                                 |
| \\      /  F ield         | OpenFOAM: The Open Source CFD Toolbox           |
|  \\    /   O peration     | Version:  2.3.0                                 |
|   \\  /    A nd           | Web:      www.OpenFOAM.org                      |
|    \\/     M anipulation  |                                                 |
\*---------------------------------------------------------------------------*/
FoamFile
{
    version     2.0;
    format      ascii;
    class       volScalarField;
    object      nut.water;
}
// * * * * * * * * * * * * * * * * * * * * * * * * * * * * * * * * * * * * * //

dimensions      [0 2 -1 0 0 0 0];

internalField   uniform 1e-8;

boundaryField
{
    inletTop
    {
        type            calculated;
        value           $internalField;
    }
    inletBottom
    {
        type            calculated;
        value           $internalField;
    }

    outlet
    {
        type            calculated;
        value           $internalField;
    }

    shaft
    {
        type            nutkWallFunction;
        value           $internalField;
    }
    vessel
    {
        type            nutkWallFunction;
        value           $internalField;
    }
    sparger
    {
        type            nutkWallFunction;
        value           $internalField;
    }
    impeller
    {
        type            nutkWallFunction;
        value           $internalField;
    }
    heater
    {
        type            nutkWallFunction;
        value           $internalField;
    }
}

// ************************************************************************* //
