/*--------------------------------*- C++ -*----------------------------------*\
| =========                 |                                                 |
| \\      /  F ield         | OpenFOAM: The Open Source CFD Toolbox           |
|  \\    /   O peration     | Version:  2.3.0                                 |
|   \\  /    A nd           | Web:      www.OpenFOAM.org                      |
|    \\/     M anipulation  |                                                 |
\*---------------------------------------------------------------------------*/
FoamFile
{
    version     2.0;
    format      binary;
    class       volVectorField;
    object      U.air;
}
// * * * * * * * * * * * * * * * * * * * * * * * * * * * * * * * * * * * * * //

dimensions      [0 1 -1 0 0 0 0];

internalField   uniform (0 0 0);

boundaryField
{
    inletTop
    {
        type           	fixedValue;
        value           uniform (0 0 4.95);
    }
    inletBottom
    {
        type           	fixedValue;
        value           uniform (0 0 -4.95);
    }
    outlet
    {
        type            inletOutlet;
        inletValue      uniform (0 0 0);
        value           uniform (0 0 0);
    }
    impeller
    {
        type            movingWallVelocity;
        value           uniform (0 0 0);
    }
    sparger
    {
        type           	fixedValue;
        value           uniform (0 0 0);
    }
    vessel
    {
        type           	fixedValue;
        value           uniform (0 0 0);
    }
    shaft
    {
        type            rotatingWallVelocity;
        origin          (0 0 0);
        axis            (0 0 1);
        omega           4.71;
    }
    heater
    {
        type           	fixedValue;
        value           uniform (0 0 0);
    }
}

// ************************************************************************* //
