/*--------------------------------*- C++ -*----------------------------------*\
| =========                 |                                                 |
| \\      /  F ield         | OpenFOAM: The Open Source CFD Toolbox           |
|  \\    /   O peration     | Version:  4.0                                   |
|   \\  /    A nd           | Web:      www.OpenFOAM.org                      |
|    \\/     M anipulation  |                                                 |
\*---------------------------------------------------------------------------*/
FoamFile
{
    version     2.0;
    format      ascii;
    class       dictionary;
    location    "system";
    object      controlDict;
}
// * * * * * * * * * * * * * * * * * * * * * * * * * * * * * * * * * * * * * //

application     twoPhaseEulerFoam;

startFrom       latestTime;

startTime       0;

stopAt          endTime;

endTime         10;

deltaT          1e-4;

writeControl    runTime;

writeInterval   0.5;

purgeWrite      0;

writeFormat     ascii;

writePrecision  6;

writeCompression uncompressed;

timeFormat      general;

timePrecision   6;

runTimeModifiable yes;

adjustTimeStep  yes;

maxCo           0.3;

maxDeltaT       0.005;


functions
{
 

   fieldAverage1
    {
        type            fieldAverage;
        libs ( "libfieldFunctionObjects.so" );
        writeControl    writeTime;
        fields
        (
            U.air
            {
                 mean        on;
                 prime2Mean  off;
                 base        time;
            }

            U.water
            {
                 mean        on;
                 prime2Mean  off;
                 base        time;
            }

            alpha.air
            {
                 mean        on;
                 prime2Mean  off;
                 base        time;
            }

            p
            {
                 mean        on;
                 prime2Mean  off;
                 base        time;
            }

            epsilon.water
            {
                 mean        on;
                 prime2Mean  off;
                 base        time;
            }

        );
    }



    alpha.air_lowerInnerCenter
    {
        type            volRegion;
        libs ("libfieldFunctionObjects.so");
        log             true;
        writeFields     false;
        regionType      cellZone;
        name            lowerInnerCenter;
        operation       volAverage;
       // weightField     alpha1;
        fields
        (
            alpha.air

        );
    }

    epsilon.water_lowerInnerCenter
    {
        type            volRegion;
        libs ("libfieldFunctionObjects.so");
        log             true;
        writeFields     false;
        regionType      cellZone;
        name            lowerInnerCenter;
        operation       volAverage;
       // weightField     alpha1;
        fields
        (

            epsilon.water
        );
    }

    alpha.air_lowerOuterCenter
    {
        type            volRegion;
        libs ("libfieldFunctionObjects.so");
        log             true;
        writeFields     false;
        regionType      cellZone;
        name            lowerOuterCenter;
        operation       volAverage;
       // weightField     alpha1;
        fields
        (
            alpha.air

        );
    }

    epsilon.water_lowerOuterCenter
    {
        type            volRegion;
        libs ("libfieldFunctionObjects.so");
        log             true;
        writeFields     false;
        regionType      cellZone;
        name            lowerOuterCenter;
        operation       volAverage;
       // weightField     alpha1;
        fields
        (

            epsilon.water
        );
    }

    alpha.air_aboveRotor
    {
        type            volRegion;
        libs ("libfieldFunctionObjects.so");
        log             true;
        writeFields     false;
        regionType      cellZone;
        name            aboveRotor;
        operation       volAverage;
       // weightField     alpha1;
        fields
        (
            alpha.air

        );
    }

    epsilon.water_aboveRotor
    {
        type            volRegion;
        libs ("libfieldFunctionObjects.so");
        log             true;
        writeFields     false;
        regionType      cellZone;
        name            aboveRotor;
        operation       volAverage;
       // weightField     alpha1;
        fields
        (

            epsilon.water
        );
    }
    
    alpha.air_waterZone
    {
        type            volRegion;
        libs ("libfieldFunctionObjects.so");
        log             true;
        writeFields     false;
        regionType      cellZone;
        name            waterZone;
        operation       volAverage;
       // weightField     alpha1;
        fields
        (

            alpha.air
        );
    }

    epsilon.water_waterZone
    {
        type            volRegion;
        libs ("libfieldFunctionObjects.so");
        log             true;
        writeFields     false;
        regionType      cellZone;
        name            waterZone;
        operation       volAverage;
       // weightField     alpha1;
        fields
        (

            epsilon.water
        );
    }
    epsilon.water_MRFzone
    {
        type            volRegion;
        libs ("libfieldFunctionObjects.so");
        log             true;
        writeFields     false;
        regionType      cellZone;
        name            MRFzone;
        operation       volAverage;
       // weightField     alpha1;
        fields
        (

            epsilon.water
        );
    }
        alpha.air_MRFzone
    {
        type            volRegion;
        libs ("libfieldFunctionObjects.so");
        log             true;
        writeFields     false;
        regionType      cellZone;
        name            MRFzone;
        operation       volAverage;
       // weightField     alpha1;
        fields
        (

            alpha.air
        );
    }
}


// ************************************************************************* //
