/*--------------------------------*- C++ -*----------------------------------*\
| =========                 |                                                 |
| \\      /  F ield         | OpenFOAM: The Open Source CFD Toolbox           |
|  \\    /   O peration     | Version:  4.x                                   |
|   \\  /    A nd           | Web:      www.OpenFOAM.org                      |
|    \\/     M anipulation  |                                                 |
\*---------------------------------------------------------------------------*/
FoamFile
{
    version     2.0;
    format      ascii;
    class       dictionary;
    location    "system";
    object      fvSolution;
}
// * * * * * * * * * * * * * * * * * * * * * * * * * * * * * * * * * * * * * //

solvers
{
    alpha.air
    {
        nAlphaCorr      1;
        nAlphaSubCycles 2;
    }

    p_rgh
    {
        solver          GAMG;
        tolerance       1e-08;
        relTol          0.001;
        maxIter			100;
        smoother        DIC;
        nPreSweeps      1;
        nPostSweeps     2;
        nFinestSweeps   2;
        scaleCorrection	true;
        directSolveCoarsestLevel	false;
        cacheAgglomeration true;
        nCellsInCoarsestLevel 590;
        agglomerator    faceAreaPair;
        mergeLevels     1;
    }

    p_rghFinal
    {
        $p_rgh;
        tolerance       1e-08;
        relTol          0;
    }

    "U.*"
    {
        solver          smoothSolver;
        smoother        symGaussSeidel;
        tolerance       1e-5;
        relTol          0;
        minIter         1;
    }

    "(h|e).*"
    {
        solver          smoothSolver;
        smoother        symGaussSeidel;
     //   tolerance       1e-8;
        relTol          0;
      //  minIter         1;
         minIter         0;
         maxIter         0;
    }

    "(k|epsilon|Theta).*"
    {
        solver          smoothSolver;
        smoother        symGaussSeidel;
        tolerance       1e-7;
        relTol          0;
        minIter         1;
    }

    "moment.*"
    {
        solver          PBiCG;
        preconditioner  DILU;
        tolerance       1e-10;
        relTol          0;
    }

    Y_O2 
    {
/*
        solver           BICCG;
        preconditioner   DILU;
        tolerance        1e-7;
        relTol           0;
*/

        solver          PBiCG;
        preconditioner  DILU;
        tolerance       1e-05;
        relTol          0;
    }
}

PIMPLE
{
    nOuterCorrectors 1;
    nCorrectors      1;
    nNonOrthogonalCorrectors 0;


    residualControl
    {
        "moment.*"      
        {   
            tolerance 1e-6;
            relTol    0;
        }
    }
}



// ************************************************************************* //
