/*--------------------------------*- C++ -*----------------------------------*\
| =========                 |                                                 |
| \\      /  F ield         | OpenFOAM: The Open Source CFD Toolbox           |
|  \\    /   O peration     | Version:  4.0                                   |
|   \\  /    A nd           | Web:      www.OpenFOAM.org                      |
|    \\/     M anipulation  |                                                 |
\*---------------------------------------------------------------------------*/
FoamFile
{
    version     2.0;
    format      ascii;
    class       extendedFeatureEdgeMesh;
    location    "constant/extendedFeatureEdgeMesh";
    object      InletBottom.extendedFeatureEdgeMesh;
}
// * * * * * * * * * * * * * * * * * * * * * * * * * * * * * * * * * * * * * //

// points

105
(
(0.00995788 -0.011334 0.0228337)
(0.00977079 -0.011185 0.022825)
(0.0101611 -0.0114297 0.0228559)
(0.0103447 -0.0114733 0.0228816)
(0.0105179 -0.0114822 0.0229078)
(0.0111826 -0.00976843 0.022825)
(0.0112848 -0.00988541 0.0228287)
(0.0113705 -0.0100223 0.02284)
(0.0114415 -0.0101983 0.0228612)
(0.0114791 -0.0103962 0.0228898)
(0.0106857 -0.0114621 0.0229326)
(0.0108414 -0.0114164 0.0229532)
(0.0109813 -0.0113498 0.022968)
(0.0110941 -0.0112743 0.0229759)
(0.01119 -0.01119 0.0229784)
(0.0113268 -0.0110193 0.0229714)
(0.0114299 -0.0108039 0.022949)
(0.0114766 -0.010595 0.0229199)
(0.00951141 -0.0107201 0.0228679)
(0.00948658 -0.010569 0.0228921)
(0.0095548 -0.0108553 0.0228491)
(0.00961372 -0.0109774 0.0228356)
(0.00967831 -0.0110767 0.0228282)
(0.0105564 -0.00948557 0.0228936)
(0.0107928 -0.00953212 0.0228569)
(0.0110128 -0.00963483 0.0228323)
(0.0103046 -0.00949888 0.0229366)
(0.0100905 -0.00956303 0.0229695)
(0.00988999 -0.00967754 0.0229908)
(0.00976024 -0.00979161 0.0229949)
(0.00964478 -0.00993731 0.0229873)
(0.0095725 -0.010069 0.0229728)
(0.0095158 -0.0102283 0.0229496)
(0.00948631 -0.0103998 0.0229209)
(-0.00943739 -0.011787 0.022833)
(-0.00933161 -0.0115837 0.022825)
(-0.0094915 -0.011991 0.0228526)
(-0.00950327 -0.0121442 0.0228723)
(-0.0094891 -0.0123117 0.0228964)
(-0.00769318 -0.0127302 0.022825)
(-0.00777978 -0.0128343 0.0228278)
(-0.00787826 -0.0129246 0.0228358)
(-0.007999 -0.0130075 0.0228498)
(-0.00819811 -0.0130962 0.0228777)
(-0.00840894 -0.0131395 0.022909)
(-0.00944386 -0.0124835 0.0229219)
(-0.00937086 -0.0126412 0.022944)
(-0.0092719 -0.0127836 0.0229604)
(-0.00917962 -0.0128805 0.022968)
(-0.00907685 -0.0129631 0.0229706)
(-0.00886476 -0.0130763 0.0229622)
(-0.00863282 -0.0131355 0.0229392)
(-0.00889918 -0.0112256 0.0228729)
(-0.00874856 -0.0111745 0.0228993)
(-0.00902953 -0.0112936 0.0228523)
(-0.00914329 -0.0113756 0.0228374)
(-0.00923518 -0.0114625 0.0228288)
(-0.00750543 -0.0120783 0.0228931)
(-0.00751833 -0.0123168 0.0228562)
(-0.00757977 -0.0125275 0.0228335)
(-0.00755215 -0.0118351 0.0229368)
(-0.00765373 -0.0116165 0.0229746)
(-0.00778526 -0.0114478 0.0229968)
(-0.00791003 -0.0113389 0.0230034)
(-0.00809815 -0.0112297 0.0229966)
(-0.00825744 -0.0111746 0.0229801)
(-0.00839761 -0.0111495 0.0229602)
(-0.00857023 -0.0111462 0.0229313)
(-0.0132212 0.00724197 0.0228325)
(-0.0130118 0.00717088 0.022825)
(-0.0134198 0.00726518 0.0228507)
(-0.0136179 0.00724863 0.0228765)
(-0.0137881 0.00720128 0.0229027)
(-0.0138599 0.0053596 0.022825)
(-0.0139867 0.00543062 0.0228283)
(-0.0140956 0.00551372 0.022837)
(-0.0142014 0.00562176 0.0228521)
(-0.0143027 0.00576652 0.0228751)
(-0.0143745 0.00592014 0.0229001)
(-0.0139399 0.00712906 0.0229273)
(-0.0140779 0.00703214 0.022949)
(-0.0142008 0.0069096 0.0229656)
(-0.0142782 0.00680443 0.0229731)
(-0.0143423 0.00668793 0.0229757)
(-0.0144143 0.00647275 0.022968)
(-0.014436 0.00626742 0.022949)
(-0.0144197 0.00608536 0.0229253)
(-0.0125982 0.00681128 0.0228705)
(-0.0125307 0.00669008 0.0228928)
(-0.0127035 0.00694608 0.0228476)
(-0.0128394 0.00706783 0.0228314)
(-0.0129394 0.00713331 0.022826)
(-0.0131664 0.00530233 0.0228956)
(-0.0133338 0.00527056 0.0228682)
(-0.0134907 0.00526681 0.0228475)
(-0.0136501 0.0052885 0.0228327)
(-0.0129939 0.00536837 0.0229275)
(-0.0128324 0.00546812 0.0229583)
(-0.0126731 0.00561878 0.0229853)
(-0.012589 0.00573376 0.0229952)
(-0.0124938 0.00593043 0.0229962)
(-0.0124494 0.00610213 0.0229845)
(-0.0124363 0.00624186 0.0229683)
(-0.0124441 0.00639204 0.0229459)
(-0.0124765 0.00654693 0.0229192)
)

// edges

105
(
(0 1)
(2 0)
(3 2)
(4 3)
(5 6)
(6 7)
(7 8)
(8 9)
(10 4)
(11 10)
(12 11)
(13 12)
(14 13)
(15 14)
(16 15)
(17 16)
(9 17)
(18 19)
(20 18)
(21 20)
(22 21)
(1 22)
(23 24)
(24 25)
(25 5)
(26 23)
(27 26)
(28 27)
(29 28)
(30 29)
(31 30)
(32 31)
(33 32)
(19 33)
(34 35)
(36 34)
(37 36)
(38 37)
(39 40)
(40 41)
(41 42)
(42 43)
(43 44)
(45 38)
(46 45)
(47 46)
(48 47)
(49 48)
(50 49)
(51 50)
(44 51)
(52 53)
(54 52)
(55 54)
(56 55)
(35 56)
(57 58)
(58 59)
(59 39)
(60 57)
(61 60)
(62 61)
(63 62)
(64 63)
(65 64)
(66 65)
(67 66)
(53 67)
(68 69)
(70 68)
(71 70)
(72 71)
(73 74)
(74 75)
(75 76)
(76 77)
(77 78)
(79 72)
(80 79)
(81 80)
(82 81)
(83 82)
(84 83)
(85 84)
(86 85)
(78 86)
(87 88)
(89 87)
(90 89)
(91 90)
(69 91)
(92 93)
(93 94)
(94 95)
(95 73)
(96 92)
(97 96)
(98 97)
(99 98)
(100 99)
(101 100)
(102 101)
(103 102)
(104 103)
(88 104)
)

// concaveStart mixedStart nonFeatureStart
0 0 0
// internalStart flatStart openStart multipleStart
0 0 0 105
// normals

105
(
(0.0248687 -0.027114 -0.999323)
(0.082247 -0.0561779 -0.995027)
(0.123891 -0.0620349 -0.990355)
(0.146325 -0.0593153 -0.987457)
(0.0177136 -0.0161379 -0.999713)
(0.0440511 -0.0547706 -0.997527)
(0.0593457 -0.0957405 -0.993636)
(0.0622947 -0.131154 -0.989403)
(0.162424 -0.153229 -0.974751)
(0.174459 -0.156169 -0.972201)
(0.177131 -0.156134 -0.971723)
(0.173329 -0.157236 -0.972231)
(0.166931 -0.161037 -0.972729)
(0.159899 -0.168043 -0.972725)
(0.156808 -0.176108 -0.971801)
(0.156527 -0.170511 -0.972844)
(0.148578 -0.149869 -0.977478)
(-0.0536155 0.149328 -0.987333)
(-0.0543781 0.120381 -0.991237)
(-0.0487082 0.0865186 -0.995059)
(-0.0355292 0.0512505 -0.998054)
(-0.015194 0.0165658 -0.999747)
(-0.14262 0.0548487 -0.988257)
(-0.0875976 0.0506498 -0.994867)
(-0.0250262 0.0228 -0.999427)
(-0.17419 0.15255 -0.972824)
(-0.196034 0.157919 -0.967798)
(-0.193226 0.158218 -0.968313)
(-0.177472 0.167011 -0.969851)
(-0.164558 0.180979 -0.969622)
(-0.158987 0.193858 -0.968061)
(-0.158473 0.197299 -0.96745)
(-0.15748 0.189282 -0.969212)
(-0.148255 0.165706 -0.974968)
(-0.0215983 -0.0280884 -0.999372)
(-0.0398119 -0.0850875 -0.995578)
(-0.0396059 -0.124454 -0.991435)
(-0.0348666 -0.14521 -0.988786)
(-0.0111698 -0.0175949 -0.999783)
(-0.0388042 -0.0461139 -0.998182)
(-0.069396 -0.067014 -0.995336)
(-0.103059 -0.0805061 -0.991412)
(-0.129769 -0.0824148 -0.988113)
(-0.118884 -0.176337 -0.977124)
(-0.120979 -0.192474 -0.973816)
(-0.120515 -0.195837 -0.973203)
(-0.122047 -0.192589 -0.97366)
(-0.126176 -0.187652 -0.974098)
(-0.135318 -0.181243 -0.974084)
(-0.142515 -0.180242 -0.973243)
(-0.134667 -0.177997 -0.974773)
(0.145651 0.0801187 -0.986087)
(0.116484 0.076703 -0.990226)
(0.0827442 0.0658876 -0.99439)
(0.0487863 0.0471463 -0.997696)
(0.0149525 0.0194455 -0.999699)
(0.0303157 0.151222 -0.988035)
(0.0347003 0.0970439 -0.994675)
(0.0196289 0.0309198 -0.999329)
(0.121911 0.198181 -0.972554)
(0.124751 0.225059 -0.966326)
(0.124886 0.224551 -0.966427)
(0.133866 0.212037 -0.96805)
(0.150607 0.199166 -0.968323)
(0.167417 0.194546 -0.966501)
(0.171943 0.19463 -0.965689)
(0.165609 0.19304 -0.967114)
(0.145587 0.182167 -0.97243)
(-0.0303841 0.0159261 -0.999411)
(-0.0883708 0.0246715 -0.995782)
(-0.130637 0.0184378 -0.991259)
(-0.154238 0.00772415 -0.988003)
(-0.0211071 0.00875094 -0.999739)
(-0.0549419 0.0324853 -0.997961)
(-0.0807439 0.0599886 -0.994928)
(-0.0978085 0.0890432 -0.991214)
(-0.104472 0.111993 -0.988202)
(-0.200149 0.0883223 -0.975776)
(-0.214338 0.0873523 -0.972846)
(-0.217386 0.0863174 -0.972262)
(-0.214441 0.0884604 -0.972723)
(-0.209978 0.0938101 -0.973195)
(-0.205443 0.103567 -0.973174)
(-0.205482 0.111679 -0.972268)
(-0.204208 0.108369 -0.972911)
(-0.194607 0.0956538 -0.976206)
(0.101979 -0.12479 -0.986928)
(0.0929533 -0.095746 -0.991056)
(0.069184 -0.055307 -0.99607)
(0.0379711 -0.0244205 -0.99898)
(0.0108402 -0.00568199 -0.999925)
(0.161273 0.00142857 -0.986909)
(0.131033 -0.0104439 -0.991323)
(0.0901275 -0.0171448 -0.995783)
(0.0321536 -0.0133308 -0.999394)
(0.212107 -0.0837242 -0.973653)
(0.236057 -0.083256 -0.968166)
(0.241169 -0.0816887 -0.967039)
(0.233647 -0.0875186 -0.968375)
(0.221979 -0.102519 -0.969647)
(0.216673 -0.122038 -0.968586)
(0.217175 -0.13248 -0.967101)
(0.21731 -0.132947 -0.967006)
(0.211584 -0.122876 -0.969605)
(0.195869 -0.105644 -0.974923)
)

// normal volume types

105
(
0
0
0
0
0
0
0
0
0
0
0
0
0
0
0
0
0
0
0
0
0
0
0
0
0
0
0
0
0
0
0
0
0
0
0
0
0
0
0
0
0
0
0
0
0
0
0
0
0
0
0
0
0
0
0
0
0
0
0
0
0
0
0
0
0
0
0
0
0
0
0
0
0
0
0
0
0
0
0
0
0
0
0
0
0
0
0
0
0
0
0
0
0
0
0
0
0
0
0
0
0
0
0
0
0
)

// normalDirections

105
(
1(1)
1(1)
1(1)
1(1)
1(1)
1(1)
1(1)
1(1)
1(1)
1(1)
1(1)
1(1)
1(1)
1(1)
1(1)
1(1)
1(1)
1(1)
1(1)
1(1)
1(1)
1(1)
1(1)
1(1)
1(1)
1(1)
1(1)
1(1)
1(1)
1(1)
1(1)
1(1)
1(1)
1(1)
1(1)
1(1)
1(1)
1(1)
1(1)
1(1)
1(1)
1(1)
1(1)
1(1)
1(1)
1(1)
1(1)
1(1)
1(1)
1(1)
1(1)
1(1)
1(1)
1(1)
1(1)
1(1)
1(1)
1(1)
1(1)
1(1)
1(1)
1(1)
1(1)
1(1)
1(1)
1(1)
1(1)
1(1)
1(1)
1(1)
1(1)
1(1)
1(1)
1(1)
1(1)
1(1)
1(1)
1(1)
1(1)
1(1)
1(1)
1(1)
1(1)
1(1)
1(1)
1(1)
1(1)
1(1)
1(1)
1(1)
1(1)
1(1)
1(1)
1(1)
1(1)
1(1)
1(1)
1(1)
1(1)
1(1)
1(1)
1(1)
1(1)
1(1)
1(1)
)

// edgeNormals

105
(
1(0)
1(1)
1(2)
1(3)
1(4)
1(5)
1(6)
1(7)
1(8)
1(9)
1(10)
1(11)
1(12)
1(13)
1(14)
1(15)
1(16)
1(17)
1(18)
1(19)
1(20)
1(21)
1(22)
1(23)
1(24)
1(25)
1(26)
1(27)
1(28)
1(29)
1(30)
1(31)
1(32)
1(33)
1(34)
1(35)
1(36)
1(37)
1(38)
1(39)
1(40)
1(41)
1(42)
1(43)
1(44)
1(45)
1(46)
1(47)
1(48)
1(49)
1(50)
1(51)
1(52)
1(53)
1(54)
1(55)
1(56)
1(57)
1(58)
1(59)
1(60)
1(61)
1(62)
1(63)
1(64)
1(65)
1(66)
1(67)
1(68)
1(69)
1(70)
1(71)
1(72)
1(73)
1(74)
1(75)
1(76)
1(77)
1(78)
1(79)
1(80)
1(81)
1(82)
1(83)
1(84)
1(85)
1(86)
1(87)
1(88)
1(89)
1(90)
1(91)
1(92)
1(93)
1(94)
1(95)
1(96)
1(97)
1(98)
1(99)
1(100)
1(101)
1(102)
1(103)
1(104)
)

// featurePointNormals
0()
// featurePointEdges
0()
// regionEdges

105
(
0
1
2
3
4
5
6
7
8
9
10
11
12
13
14
15
16
17
18
19
20
21
22
23
24
25
26
27
28
29
30
31
32
33
34
35
36
37
38
39
40
41
42
43
44
45
46
47
48
49
50
51
52
53
54
55
56
57
58
59
60
61
62
63
64
65
66
67
68
69
70
71
72
73
74
75
76
77
78
79
80
81
82
83
84
85
86
87
88
89
90
91
92
93
94
95
96
97
98
99
100
101
102
103
104
)



// ************************************************************************* //
