/*--------------------------------*- C++ -*----------------------------------*\
| =========                 |                                                 |
| \\      /  F ield         | OpenFOAM: The Open Source CFD Toolbox           |
|  \\    /   O peration     | Version:  4.0                                   |
|   \\  /    A nd           | Web:      www.OpenFOAM.org                      |
|    \\/     M anipulation  |                                                 |
\*---------------------------------------------------------------------------*/
FoamFile
{
    version     2.0;
    format      ascii;
    class       extendedFeatureEdgeMesh;
    location    "constant/extendedFeatureEdgeMesh";
    object      InletTop.extendedFeatureEdgeMesh;
}
// * * * * * * * * * * * * * * * * * * * * * * * * * * * * * * * * * * * * * //

// points

212
(
(-0.013646 0.00240289 0.0290106)
(-0.0136784 0.00258443 0.0290315)
(-0.0136467 0.0022328 0.0290011)
(-0.0140535 0.001511 0.0290897)
(-0.0139285 0.00161901 0.029061)
(-0.0141901 0.0014273 0.029117)
(-0.0143244 0.00137107 0.0291391)
(-0.0144572 0.00133646 0.029156)
(-0.0146321 0.00131919 0.0291702)
(-0.0148271 0.00133634 0.0291749)
(-0.0136936 0.00200203 0.0290047)
(-0.0137558 0.00185665 0.0290185)
(-0.0145302 0.00331282 0.0291747)
(-0.0146714 0.00331872 0.02917)
(-0.0138341 0.00173051 0.0290378)
(-0.0143821 0.00328465 0.0291731)
(-0.0154867 0.0028551 0.0290496)
(-0.015566 0.0027026 0.0290343)
(-0.0153996 0.00297237 0.0290673)
(-0.0152728 0.00309545 0.0290924)
(-0.0156302 0.00247557 0.0290263)
(-0.0151159 0.00320001 0.0291202)
(-0.0149629 0.00326641 0.0291427)
(-0.014815 0.00330415 0.0291593)
(-0.0156419 0.00231622 0.0290303)
(-0.0156329 0.00217926 0.0290391)
(-0.0155989 0.00202728 0.0290549)
(-0.0155361 0.00187035 0.029077)
(-0.0154544 0.00173533 0.0291)
(-0.0149852 0.0013797 0.0291697)
(-0.0151145 0.00143757 0.0291591)
(-0.0152315 0.00151101 0.0291443)
(-0.0153505 0.00161291 0.0291236)
(-0.0142459 0.00323715 0.0291648)
(-0.0140996 0.00315894 0.0291479)
(-0.0139462 0.00303693 0.0291196)
(-0.0138196 0.00288731 0.0290862)
(-0.0137267 0.00272092 0.0290535)
(-0.0115058 -0.00784101 0.0290292)
(-0.0117319 -0.00774878 0.0290687)
(-0.0113127 -0.00798163 0.0290034)
(-0.0109942 -0.00874594 0.0290656)
(-0.0110028 -0.00857895 0.029038)
(-0.0110161 -0.00892445 0.0290975)
(-0.0110753 -0.00910961 0.0291297)
(-0.0111436 -0.00924055 0.0291499)
(-0.0112044 -0.00932793 0.0291612)
(-0.0111628 -0.00815753 0.0289967)
(-0.0110808 -0.00830579 0.0290044)
(-0.011444 -0.0095493 0.0291749)
(-0.011292 -0.0094264 0.0291707)
(-0.0126049 -0.00792247 0.029175)
(-0.0127224 -0.00802908 0.0291705)
(-0.0124781 -0.0078391 0.029172)
(-0.0129728 -0.00891719 0.0290542)
(-0.0129198 -0.0090913 0.0290378)
(-0.0129925 -0.0087629 0.0290734)
(-0.0129891 -0.00861881 0.0290937)
(-0.0128027 -0.0093017 0.0290294)
(-0.0129656 -0.00847869 0.0291144)
(-0.0129099 -0.00831315 0.0291384)
(-0.012825 -0.00815814 0.0291583)
(-0.0127404 -0.00937903 0.0290309)
(-0.0126692 -0.00945119 0.0290353)
(-0.0124313 -0.00961308 0.0290619)
(-0.0122967 -0.0096669 0.029081)
(-0.0125561 -0.00954082 0.0290463)
(-0.0116331 -0.00964664 0.0291661)
(-0.0118242 -0.00969946 0.0291473)
(-0.0119954 -0.00971391 0.0291251)
(-0.012152 -0.00970131 0.0291025)
(-0.0123318 -0.00777282 0.0291611)
(-0.0121548 -0.00772697 0.0291398)
(-0.0119577 -0.00771456 0.029109)
(-0.00331657 -0.0145708 0.0291742)
(-0.00331318 -0.0147515 0.0291653)
(-0.00328944 -0.0144006 0.0291734)
(-0.00134086 -0.0148498 0.0291747)
(-0.00131917 -0.0146347 0.0291702)
(-0.00282227 -0.0155067 0.0290474)
(-0.00262238 -0.0155954 0.0290314)
(-0.00296239 -0.0154081 0.0290674)
(-0.00307297 -0.0152996 0.0290889)
(-0.00247557 -0.0156302 0.029028)
(-0.00316321 -0.0151787 0.0291111)
(-0.00323378 -0.0150468 0.0291322)
(-0.00328045 -0.014918 0.0291493)
(-0.00225685 -0.0156405 0.029035)
(-0.00188657 -0.0155441 0.0290755)
(-0.00169753 -0.0154258 0.0291079)
(-0.00209615 -0.0156173 0.0290485)
(-0.00140964 -0.0150582 0.0291648)
(-0.00153182 -0.015259 0.0291406)
(-0.00324799 -0.014272 0.0291663)
(-0.00316844 -0.0141146 0.029149)
(-0.00303831 -0.0139476 0.0291185)
(-0.00285032 -0.0137952 0.0290766)
(-0.00263693 -0.0136943 0.0290373)
(-0.00242607 -0.0136482 0.0290106)
(-0.0021942 -0.0136503 0.0289982)
(-0.00148957 -0.0140841 0.0290953)
(-0.00159413 -0.0139537 0.0290659)
(-0.00139503 -0.0142604 0.0291286)
(-0.00133808 -0.0144488 0.0291547)
(-0.00197019 -0.0137053 0.0290054)
(-0.00183042 -0.01377 0.0290204)
(-0.00169641 -0.0138601 0.0290429)
(0.00789138 -0.0125624 0.0291749)
(0.00798836 -0.0126818 0.0291722)
(0.00781902 -0.0124399 0.0291709)
(0.00944805 -0.0113147 0.029173)
(0.00934774 -0.0112202 0.0291653)
(0.00955402 -0.0114513 0.0291744)
(0.00890844 -0.0129745 0.0290495)
(0.00907106 -0.0129277 0.0290331)
(0.00876241 -0.0129925 0.0290682)
(0.00858224 -0.012985 0.0290946)
(0.00927925 -0.0128185 0.029023)
(0.0093017 -0.0128027 0.0290228)
(0.00839257 -0.0129406 0.0291237)
(0.00823398 -0.012871 0.0291465)
(0.00810066 -0.0127836 0.0291628)
(0.00948999 -0.0126243 0.0290327)
(0.00967549 -0.0122682 0.0290798)
(0.00971138 -0.0120648 0.0291108)
(0.00959167 -0.0124728 0.0290503)
(0.00964663 -0.0116331 0.0291643)
(0.00970258 -0.0118435 0.0291418)
(0.00775706 -0.0122842 0.0291581)
(0.0077186 -0.0120903 0.0291336)
(0.00772143 -0.0118713 0.0290983)
(0.00778131 -0.0116328 0.0290565)
(0.00788861 -0.011429 0.029024)
(0.00802615 -0.0112677 0.0290067)
(0.00878459 -0.0109962 0.0290781)
(0.00860982 -0.0109991 0.0290492)
(0.00896815 -0.0110265 0.0291099)
(0.00910075 -0.0110715 0.029132)
(0.00923249 -0.0111386 0.0291516)
(0.00821152 -0.011129 0.0290056)
(0.00841099 -0.0110407 0.029022)
(0.013872 -0.00168174 0.029056)
(0.0137749 -0.0018219 0.0290327)
(0.0139799 -0.00157014 0.0290811)
(0.0147986 -0.0013314 0.0291749)
(0.0146096 -0.00131968 0.0291707)
(0.0149726 -0.00137522 0.0291686)
(0.0144474 -0.00329993 0.0291749)
(0.0145816 -0.00331729 0.0291728)
(0.0142942 -0.00325651 0.0291701)
(0.0154892 -0.00285123 0.0290407)
(0.0155668 -0.00270086 0.0290252)
(0.0154052 -0.00296582 0.0290585)
(0.0152841 -0.00308614 0.0290836)
(0.0156302 -0.00247557 0.0290168)
(0.0151357 -0.00318904 0.0291115)
(0.014991 -0.00325644 0.0291347)
(0.0148508 -0.00329721 0.0291527)
(0.0147144 -0.00331655 0.0291654)
(0.0156404 -0.00225616 0.0290241)
(0.0155533 -0.00190624 0.0290632)
(0.0154754 -0.00176575 0.0290872)
(0.0156104 -0.00206735 0.0290412)
(0.0151096 -0.00143492 0.0291564)
(0.0152518 -0.00152624 0.0291364)
(0.0153766 -0.0016401 0.029112)
(0.0141338 -0.00318011 0.0291557)
(0.0139819 -0.0030699 0.0291319)
(0.0138404 -0.00291632 0.0290987)
(0.0137253 -0.00271768 0.0290607)
(0.0136564 -0.00248547 0.029028)
(0.0136439 -0.00226556 0.0290118)
(0.0141131 -0.00147078 0.0291089)
(0.0142484 -0.00140006 0.0291326)
(0.0143849 -0.0013529 0.0291515)
(0.0144837 -0.00133182 0.0291618)
(0.0136823 -0.00203965 0.0290129)
(0.0110066 0.00887407 0.0290998)
(0.0109939 0.00869184 0.0290698)
(0.0110655 0.00908615 0.0291342)
(0.0111266 0.00921216 0.0291522)
(0.0112306 0.0093602 0.0291684)
(0.0113785 0.00950234 0.029175)
(0.0110922 0.00828103 0.0290191)
(0.0112069 0.00809668 0.0290135)
(0.0110419 0.00840705 0.0290305)
(0.0110073 0.00854936 0.0290484)
(0.0115757 0.00962236 0.0291668)
(0.0129663 0.00894622 0.0290364)
(0.012916 0.00910021 0.0290217)
(0.012989 0.00881022 0.0290536)
(0.0129914 0.00864583 0.0290777)
(0.0128027 0.0093017 0.0290135)
(0.0129637 0.00847103 0.0291055)
(0.0129119 0.00831794 0.0291298)
(0.0128439 0.00818753 0.0291489)
(0.0127632 0.00807532 0.0291628)
(0.0126718 0.00797896 0.0291715)
(0.0125659 0.0078938 0.029175)
(0.0127185 0.00940288 0.0290162)
(0.0125997 0.00950937 0.0290263)
(0.0122774 0.00967283 0.0290713)
(0.0120459 0.00971255 0.029108)
(0.0124909 0.00958156 0.0290396)
(0.0118038 0.00969572 0.0291429)
(0.0124466 0.00782236 0.0291725)
(0.0123043 0.0077634 0.0291629)
(0.0121287 0.00772307 0.0291434)
(0.011933 0.00771576 0.0291148)
(0.0117099 0.00775502 0.0290776)
(0.0115054 0.00784122 0.0290441)
(0.0113326 0.00796358 0.0290217)
)

// edges

212
(
(0 1)
(2 0)
(3 4)
(5 3)
(6 5)
(7 6)
(8 7)
(9 8)
(10 2)
(11 10)
(12 13)
(14 11)
(15 12)
(4 14)
(16 17)
(18 16)
(19 18)
(17 20)
(21 19)
(22 21)
(23 22)
(13 23)
(20 24)
(24 25)
(25 26)
(27 28)
(26 27)
(29 9)
(30 29)
(31 30)
(32 31)
(28 32)
(33 15)
(34 33)
(35 34)
(36 35)
(37 36)
(1 37)
(38 39)
(40 38)
(41 42)
(43 41)
(44 43)
(45 44)
(46 45)
(47 40)
(48 47)
(42 48)
(49 50)
(51 52)
(53 51)
(50 46)
(54 55)
(56 54)
(57 56)
(55 58)
(59 57)
(60 59)
(61 60)
(52 61)
(58 62)
(62 63)
(64 65)
(66 64)
(63 66)
(67 49)
(68 67)
(69 68)
(70 69)
(65 70)
(71 53)
(72 71)
(73 72)
(39 73)
(74 75)
(76 74)
(77 78)
(79 80)
(81 79)
(82 81)
(80 83)
(84 82)
(85 84)
(86 85)
(75 86)
(83 87)
(88 89)
(90 88)
(87 90)
(91 77)
(92 91)
(89 92)
(93 76)
(94 93)
(95 94)
(96 95)
(97 96)
(98 97)
(99 98)
(100 101)
(102 100)
(103 102)
(78 103)
(104 99)
(105 104)
(106 105)
(101 106)
(107 108)
(109 107)
(110 111)
(112 110)
(113 114)
(115 113)
(116 115)
(114 117)
(117 118)
(119 116)
(120 119)
(121 120)
(108 121)
(118 122)
(123 124)
(125 123)
(122 125)
(126 112)
(127 126)
(124 127)
(128 109)
(129 128)
(130 129)
(131 130)
(132 131)
(133 132)
(134 135)
(136 134)
(137 136)
(138 137)
(111 138)
(139 133)
(140 139)
(135 140)
(141 142)
(143 141)
(144 145)
(146 144)
(147 148)
(149 147)
(150 151)
(152 150)
(153 152)
(151 154)
(155 153)
(156 155)
(157 156)
(158 157)
(148 158)
(154 159)
(160 161)
(162 160)
(159 162)
(163 146)
(164 163)
(165 164)
(161 165)
(166 149)
(167 166)
(168 167)
(169 168)
(170 169)
(171 170)
(172 143)
(173 172)
(174 173)
(175 174)
(145 175)
(176 171)
(142 176)
(177 178)
(179 177)
(180 179)
(181 180)
(182 181)
(183 184)
(185 183)
(186 185)
(178 186)
(187 182)
(188 189)
(190 188)
(191 190)
(189 192)
(193 191)
(194 193)
(195 194)
(196 195)
(197 196)
(198 197)
(192 199)
(199 200)
(201 202)
(203 201)
(200 203)
(204 187)
(202 204)
(205 198)
(206 205)
(207 206)
(208 207)
(209 208)
(210 209)
(211 210)
(184 211)
)

// concaveStart mixedStart nonFeatureStart
0 0 0
// internalStart flatStart openStart multipleStart
0 0 0 212
// normals

212
(
(0.269344 -0.0625708 0.961009)
(0.267629 -0.0548273 0.961961)
(0.230816 -0.00859633 0.972959)
(0.206457 -0.0178693 0.978292)
(0.170845 -0.0208772 0.985077)
(0.13015 -0.0153084 0.991376)
(0.0808461 0.000827608 0.996726)
(0.0268523 0.0315307 0.999142)
(0.271026 -0.0400757 0.961737)
(0.270222 -0.024248 0.962493)
(-0.033108 0.00372511 0.999445)
(0.272004 -0.0216535 0.962053)
(0.0105766 -0.00119002 0.999943)
(0.266518 -0.0251568 0.963501)
(-0.241312 0.0281609 0.970039)
(-0.238877 0.0309257 0.970557)
(-0.227896 0.0363643 0.973006)
(-0.246396 0.0355485 0.968517)
(-0.192061 0.0273766 0.981001)
(-0.158204 0.0300923 0.986948)
(-0.11747 0.023676 0.992794)
(-0.0751756 0.00857682 0.997133)
(-0.246463 0.0424052 0.968224)
(-0.242361 0.0463328 0.969079)
(-0.234797 0.0484077 0.970838)
(-0.219568 0.0332328 0.975031)
(-0.232588 0.0437512 0.971591)
(-0.0265544 0.0230402 0.999382)
(-0.0752503 0.0144705 0.99706)
(-0.116953 0.0138078 0.993041)
(-0.154825 0.0198397 0.987743)
(-0.185233 0.0321284 0.982169)
(0.0499336 -0.0312549 0.998263)
(0.101449 -0.0251273 0.994523)
(0.158574 -0.0295486 0.986905)
(0.203556 -0.0460735 0.977979)
(0.226346 -0.0646317 0.9719)
(0.231866 -0.0742802 0.969908)
(0.226289 0.142044 0.963648)
(0.230946 0.140497 0.962769)
(0.187635 0.169563 0.967492)
(0.18015 0.151576 0.97189)
(0.155637 0.120743 0.980407)
(0.116932 0.0915543 0.988911)
(0.0805234 0.0725362 0.99411)
(0.227904 0.157619 0.960841)
(0.218668 0.170839 0.960728)
(0.216088 0.17975 0.959685)
(0.0178739 0.0120624 0.999767)
(-0.0221965 -0.0177304 0.999596)
(0.0158882 0.0118211 0.999804)
(0.0543709 0.0478486 0.997374)
(-0.18739 -0.148507 0.970995)
(-0.187532 -0.144842 0.971521)
(-0.182905 -0.132914 0.974104)
(-0.196056 -0.147822 0.969387)
(-0.153676 -0.119134 0.980913)
(-0.137869 -0.0965241 0.985736)
(-0.105667 -0.0694767 0.991972)
(-0.0603443 -0.046286 0.997104)
(-0.20172 -0.143703 0.968844)
(-0.202192 -0.140408 0.969229)
(-0.192225 -0.135833 0.971905)
(-0.199624 -0.135258 0.970492)
(-0.201015 -0.134561 0.970302)
(-0.0391649 -0.0142326 0.999131)
(-0.0801836 -0.0639431 0.994727)
(-0.120282 -0.093397 0.988337)
(-0.150339 -0.105383 0.983002)
(-0.171128 -0.107695 0.979345)
(0.0644858 0.0217353 0.997682)
(0.102258 0.0663214 0.992545)
(0.147459 0.100178 0.983982)
(0.19156 0.116275 0.974569)
(-0.00392699 -0.0492646 0.998778)
(-0.000175006 0.00472278 0.999989)
(0.00438258 0.0204747 0.999781)
(-0.0295516 -0.241557 0.969936)
(-0.0307522 -0.2405 0.970162)
(-0.0357451 -0.229171 0.97273)
(-0.035848 -0.245845 0.968646)
(-0.0248107 -0.19844 0.979799)
(-0.0292786 -0.173148 0.98446)
(-0.0278113 -0.141448 0.989555)
(-0.0181929 -0.0991833 0.994903)
(-0.0424875 -0.243799 0.968895)
(-0.0302709 -0.218753 0.975311)
(-0.0427237 -0.235772 0.970869)
(-0.0472168 -0.237542 0.970229)
(-0.0188414 -0.0412374 0.998972)
(-0.0120542 -0.112417 0.993588)
(-0.0227859 -0.170477 0.985098)
(0.032246 0.0447354 0.998478)
(0.02466 0.0968986 0.994989)
(0.028843 0.157789 0.987052)
(0.0488703 0.208287 0.976846)
(0.0705983 0.228854 0.970897)
(0.062173 0.271842 0.960332)
(0.0538595 0.269315 0.961545)
(0.0152703 0.23155 0.972703)
(0.0226703 0.19728 0.980085)
(0.017922 0.142513 0.989631)
(-0.00248829 0.0828434 0.996559)
(0.0361421 0.273065 0.961316)
(0.0220268 0.270707 0.96241)
(0.0209728 0.27147 0.962218)
(0.0249981 0.26423 0.964136)
(0.00998622 -0.0144899 0.999845)
(-0.0159833 0.0231916 0.999603)
(-0.0367219 0.0423754 0.998427)
(-0.00402477 0.00713145 0.999966)
(0.152855 -0.191372 0.969542)
(0.147857 -0.191568 0.970278)
(0.134811 -0.186753 0.973113)
(0.152257 -0.200763 0.967735)
(0.152394 -0.204323 0.966969)
(0.114411 -0.154438 0.981356)
(0.0859012 -0.12795 0.988054)
(0.0617519 -0.0911681 0.993919)
(0.0427572 -0.0450002 0.998072)
(0.144585 -0.206304 0.967747)
(0.132366 -0.172129 0.976141)
(0.13801 -0.196507 0.970741)
(0.135566 -0.203628 0.969617)
(0.0187917 -0.0459208 0.998768)
(0.0702629 -0.0875734 0.993677)
(0.103771 -0.13393 0.985543)
(-0.031118 0.0695874 0.99709)
(-0.0748626 0.110382 0.991066)
(-0.107197 0.159562 0.98135)
(-0.117944 0.20008 0.972655)
(-0.141771 0.228253 0.963225)
(-0.143096 0.225381 0.963705)
(-0.163444 0.17603 0.970721)
(-0.141449 0.167158 0.975731)
(-0.114549 0.145074 0.982768)
(-0.0891248 0.114052 0.989469)
(-0.0664954 0.073151 0.995102)
(-0.158478 0.219429 0.962671)
(-0.170581 0.206388 0.963486)
(-0.174774 0.205825 0.962855)
(-0.261208 0.0205309 0.965064)
(-0.251095 0.0251289 0.967636)
(-0.0219996 0.00352475 0.999752)
(0.0348417 -0.00531965 0.999379)
(0.0152303 -0.00317069 0.999879)
(-0.0296535 0.00587079 0.999543)
(0.250614 -0.0295945 0.967635)
(0.248626 -0.031882 0.968075)
(0.23818 -0.0372596 0.970506)
(0.255809 -0.0359674 0.966058)
(0.203483 -0.0280976 0.978675)
(0.172531 -0.031535 0.984499)
(0.135018 -0.0269924 0.990475)
(0.0947129 -0.0143583 0.995401)
(0.0556111 0.00485597 0.998441)
(0.25503 -0.043992 0.965932)
(0.23495 -0.0356603 0.971353)
(0.24607 -0.0449992 0.968207)
(0.247585 -0.0483036 0.967661)
(0.0816555 -0.0162681 0.996528)
(0.129987 -0.0147073 0.991407)
(0.17227 -0.0222239 0.984799)
(0.201106 -0.0350808 0.978941)
(-0.0776924 0.0247422 0.99667)
(-0.136686 0.0254539 0.990287)
(-0.188638 0.0383286 0.981298)
(-0.220905 0.0582407 0.973555)
(-0.256647 0.0596957 0.96466)
(-0.255531 0.0565713 0.965144)
(-0.215006 0.0150199 0.976497)
(-0.182842 0.0204 0.982931)
(-0.143205 0.0179608 0.98953)
(-0.105466 0.00841379 0.994387)
(-0.0700229 -0.00509192 0.997532)
(-0.261755 0.0398023 0.964313)
(-0.259471 0.0225501 0.965488)
(-0.159854 -0.149494 0.975755)
(-0.145492 -0.118913 0.982187)
(-0.112151 -0.0870095 0.989875)
(-0.0696925 -0.0600148 0.995762)
(-0.00827558 -0.0377828 0.999252)
(-0.20783 -0.158635 0.965216)
(-0.197829 -0.166345 0.966019)
(-0.197173 -0.169398 0.965623)
(-0.196073 -0.163655 0.966836)
(0.0281663 0.0219942 0.999361)
(0.201255 0.158023 0.966708)
(0.201439 0.155919 0.967012)
(0.198267 0.144999 0.969364)
(0.209117 0.156876 0.965225)
(0.163621 0.129607 0.977972)
(0.148811 0.105712 0.983199)
(0.122372 0.0810767 0.989167)
(0.0875765 0.0601816 0.994338)
(0.0477607 0.0447946 0.997854)
(0.00478278 0.0351245 0.999371)
(0.214296 0.152578 0.964778)
(0.214112 0.147284 0.965642)
(0.178066 0.137501 0.974364)
(0.204884 0.142977 0.968287)
(0.211314 0.140249 0.967304)
(0.0834432 0.0645398 0.99442)
(0.134625 0.106271 0.985181)
(-0.0318914 0.0182902 0.999324)
(-0.0580509 -0.0224027 0.998062)
(-0.0956896 -0.0636654 0.993373)
(-0.140501 -0.0946034 0.98555)
(-0.181935 -0.107796 0.977384)
(-0.203927 -0.105529 0.973282)
(-0.224755 -0.14091 0.964173)
(-0.217268 -0.145719 0.965174)
)

// normal volume types

212
(
0
0
0
0
0
0
0
0
0
0
0
0
0
0
0
0
0
0
0
0
0
0
0
0
0
0
0
0
0
0
0
0
0
0
0
0
0
0
0
0
0
0
0
0
0
0
0
0
0
0
0
0
0
0
0
0
0
0
0
0
0
0
0
0
0
0
0
0
0
0
0
0
0
0
0
0
0
0
0
0
0
0
0
0
0
0
0
0
0
0
0
0
0
0
0
0
0
0
0
0
0
0
0
0
0
0
0
0
0
0
0
0
0
0
0
0
0
0
0
0
0
0
0
0
0
0
0
0
0
0
0
0
0
0
0
0
0
0
0
0
0
0
0
0
0
0
0
0
0
0
0
0
0
0
0
0
0
0
0
0
0
0
0
0
0
0
0
0
0
0
0
0
0
0
0
0
0
0
0
0
0
0
0
0
0
0
0
0
0
0
0
0
0
0
0
0
0
0
0
0
0
0
0
0
0
0
0
0
0
0
0
0
)

// normalDirections

212
(
1(1)
1(1)
1(1)
1(1)
1(1)
1(1)
1(1)
1(1)
1(1)
1(1)
1(1)
1(1)
1(1)
1(1)
1(1)
1(1)
1(1)
1(1)
1(1)
1(1)
1(1)
1(1)
1(1)
1(1)
1(1)
1(1)
1(1)
1(1)
1(1)
1(1)
1(1)
1(1)
1(1)
1(1)
1(1)
1(1)
1(1)
1(1)
1(1)
1(1)
1(1)
1(1)
1(1)
1(1)
1(1)
1(1)
1(1)
1(1)
1(1)
1(1)
1(1)
1(1)
1(1)
1(1)
1(1)
1(1)
1(1)
1(1)
1(1)
1(1)
1(1)
1(1)
1(1)
1(1)
1(1)
1(1)
1(1)
1(1)
1(1)
1(1)
1(1)
1(1)
1(1)
1(1)
1(1)
1(1)
1(1)
1(1)
1(1)
1(1)
1(1)
1(1)
1(1)
1(1)
1(1)
1(1)
1(1)
1(1)
1(1)
1(1)
1(1)
1(1)
1(1)
1(1)
1(1)
1(1)
1(1)
1(1)
1(1)
1(1)
1(1)
1(1)
1(1)
1(1)
1(1)
1(1)
1(1)
1(1)
1(1)
1(1)
1(1)
1(1)
1(1)
1(1)
1(1)
1(1)
1(1)
1(1)
1(1)
1(1)
1(1)
1(1)
1(1)
1(1)
1(1)
1(1)
1(1)
1(1)
1(1)
1(1)
1(1)
1(1)
1(1)
1(1)
1(1)
1(1)
1(1)
1(1)
1(1)
1(1)
1(1)
1(1)
1(1)
1(1)
1(1)
1(1)
1(1)
1(1)
1(1)
1(1)
1(1)
1(1)
1(1)
1(1)
1(1)
1(1)
1(1)
1(1)
1(1)
1(1)
1(1)
1(1)
1(1)
1(1)
1(1)
1(1)
1(1)
1(1)
1(1)
1(1)
1(1)
1(1)
1(1)
1(1)
1(1)
1(1)
1(1)
1(1)
1(1)
1(1)
1(1)
1(1)
1(1)
1(1)
1(1)
1(1)
1(1)
1(1)
1(1)
1(1)
1(1)
1(1)
1(1)
1(1)
1(1)
1(1)
1(1)
1(1)
1(1)
1(1)
1(1)
1(1)
1(1)
1(1)
1(1)
1(1)
1(1)
1(1)
1(1)
1(1)
1(1)
1(1)
)

// edgeNormals

212
(
1(0)
1(1)
1(2)
1(3)
1(4)
1(5)
1(6)
1(7)
1(8)
1(9)
1(10)
1(11)
1(12)
1(13)
1(14)
1(15)
1(16)
1(17)
1(18)
1(19)
1(20)
1(21)
1(22)
1(23)
1(24)
1(25)
1(26)
1(27)
1(28)
1(29)
1(30)
1(31)
1(32)
1(33)
1(34)
1(35)
1(36)
1(37)
1(38)
1(39)
1(40)
1(41)
1(42)
1(43)
1(44)
1(45)
1(46)
1(47)
1(48)
1(49)
1(50)
1(51)
1(52)
1(53)
1(54)
1(55)
1(56)
1(57)
1(58)
1(59)
1(60)
1(61)
1(62)
1(63)
1(64)
1(65)
1(66)
1(67)
1(68)
1(69)
1(70)
1(71)
1(72)
1(73)
1(74)
1(75)
1(76)
1(77)
1(78)
1(79)
1(80)
1(81)
1(82)
1(83)
1(84)
1(85)
1(86)
1(87)
1(88)
1(89)
1(90)
1(91)
1(92)
1(93)
1(94)
1(95)
1(96)
1(97)
1(98)
1(99)
1(100)
1(101)
1(102)
1(103)
1(104)
1(105)
1(106)
1(107)
1(108)
1(109)
1(110)
1(111)
1(112)
1(113)
1(114)
1(115)
1(116)
1(117)
1(118)
1(119)
1(120)
1(121)
1(122)
1(123)
1(124)
1(125)
1(126)
1(127)
1(128)
1(129)
1(130)
1(131)
1(132)
1(133)
1(134)
1(135)
1(136)
1(137)
1(138)
1(139)
1(140)
1(141)
1(142)
1(143)
1(144)
1(145)
1(146)
1(147)
1(148)
1(149)
1(150)
1(151)
1(152)
1(153)
1(154)
1(155)
1(156)
1(157)
1(158)
1(159)
1(160)
1(161)
1(162)
1(163)
1(164)
1(165)
1(166)
1(167)
1(168)
1(169)
1(170)
1(171)
1(172)
1(173)
1(174)
1(175)
1(176)
1(177)
1(178)
1(179)
1(180)
1(181)
1(182)
1(183)
1(184)
1(185)
1(186)
1(187)
1(188)
1(189)
1(190)
1(191)
1(192)
1(193)
1(194)
1(195)
1(196)
1(197)
1(198)
1(199)
1(200)
1(201)
1(202)
1(203)
1(204)
1(205)
1(206)
1(207)
1(208)
1(209)
1(210)
1(211)
)

// featurePointNormals
0()
// featurePointEdges
0()
// regionEdges

212
(
0
1
2
3
4
5
6
7
8
9
10
11
12
13
14
15
16
17
18
19
20
21
22
23
24
25
26
27
28
29
30
31
32
33
34
35
36
37
38
39
40
41
42
43
44
45
46
47
48
49
50
51
52
53
54
55
56
57
58
59
60
61
62
63
64
65
66
67
68
69
70
71
72
73
74
75
76
77
78
79
80
81
82
83
84
85
86
87
88
89
90
91
92
93
94
95
96
97
98
99
100
101
102
103
104
105
106
107
108
109
110
111
112
113
114
115
116
117
118
119
120
121
122
123
124
125
126
127
128
129
130
131
132
133
134
135
136
137
138
139
140
141
142
143
144
145
146
147
148
149
150
151
152
153
154
155
156
157
158
159
160
161
162
163
164
165
166
167
168
169
170
171
172
173
174
175
176
177
178
179
180
181
182
183
184
185
186
187
188
189
190
191
192
193
194
195
196
197
198
199
200
201
202
203
204
205
206
207
208
209
210
211
)



// ************************************************************************* //
