/*--------------------------------*- C++ -*----------------------------------*\
| =========                 |                                                 |
| \\      /  F ield         | OpenFOAM: The Open Source CFD Toolbox           |
|  \\    /   O peration     | Version:  4.0                                   |
|   \\  /    A nd           | Web:      www.OpenFOAM.org                      |
|    \\/     M anipulation  |                                                 |
\*---------------------------------------------------------------------------*/
FoamFile
{
    version     2.0;
    format      ascii;
    class       extendedFeatureEdgeMesh;
    location    "constant/extendedFeatureEdgeMesh";
    object      MRFzone.extendedFeatureEdgeMesh;
}
// * * * * * * * * * * * * * * * * * * * * * * * * * * * * * * * * * * * * * //

// points

280
(
(-0.024687 -0.0339787 0.09)
(-0.0261866 -0.0328369 0.09)
(-0.024687 -0.0339787 0.04)
(-0.0231377 -0.0350521 0.04)
(-0.0231377 -0.0350521 0.09)
(-0.0215418 -0.0360549 0.04)
(-0.0215418 -0.0360549 0.09)
(0.042 -1.0287e-17 0.04)
(0.0419577 0.00188432 0.04)
(0.0419577 0.00188432 0.09)
(0.042 -1.0287e-17 0.09)
(-0.0199025 -0.036985 0.04)
(-0.0199025 -0.036985 0.09)
(0.0418309 0.00376485 0.04)
(0.0418309 0.00376485 0.09)
(-0.0182231 -0.0378407 0.04)
(-0.0182231 -0.0378407 0.09)
(0.0416199 0.0056378 0.04)
(0.0416199 0.0056378 0.09)
(-0.016507 -0.0386202 0.04)
(-0.016507 -0.0386202 0.09)
(0.041325 0.00749939 0.09)
(0.041325 0.00749939 0.04)
(-0.0147577 -0.0393219 0.04)
(-0.0147577 -0.0393219 0.09)
(0.040947 0.00934588 0.09)
(0.040947 0.00934588 0.04)
(-0.0129787 -0.0399444 0.04)
(-0.0129787 -0.0399444 0.09)
(0.0404864 0.0111735 0.09)
(0.0404864 0.0111735 0.04)
(-0.0111735 -0.0404864 0.04)
(-0.0111735 -0.0404864 0.09)
(0.0399444 0.0129787 0.09)
(0.0399444 0.0129787 0.04)
(-0.00934588 -0.040947 0.04)
(-0.00934588 -0.040947 0.09)
(0.0393219 0.0147577 0.09)
(0.0393219 0.0147577 0.04)
(-0.00749939 -0.041325 0.04)
(-0.00749939 -0.041325 0.09)
(0.0386202 0.016507 0.09)
(0.0386202 0.016507 0.04)
(-0.0056378 -0.0416199 0.04)
(-0.0056378 -0.0416199 0.09)
(0.0378407 0.0182231 0.09)
(0.0378407 0.0182231 0.04)
(-0.00376485 -0.0418309 0.04)
(-0.00376485 -0.0418309 0.09)
(0.036985 0.0199025 0.09)
(0.036985 0.0199025 0.04)
(-0.00188432 -0.0419577 0.04)
(-0.00188432 -0.0419577 0.09)
(0.0360549 0.0215418 0.09)
(0.0360549 0.0215418 0.04)
(-7.71527e-18 -0.042 0.09)
(-7.71527e-18 -0.042 0.04)
(0.0350521 0.0231377 0.09)
(0.0350521 0.0231377 0.04)
(0.00188432 -0.0419577 0.09)
(0.00188432 -0.0419577 0.04)
(0.0339787 0.024687 0.09)
(0.00376485 -0.0418309 0.09)
(0.0339787 0.024687 0.04)
(0.00376485 -0.0418309 0.04)
(0.0056378 -0.0416199 0.09)
(0.0328369 0.0261866 0.09)
(0.0328369 0.0261866 0.04)
(0.0056378 -0.0416199 0.04)
(0.00749939 -0.041325 0.09)
(0.031629 0.0276334 0.09)
(0.031629 0.0276334 0.04)
(0.00749939 -0.041325 0.04)
(0.00934588 -0.040947 0.09)
(0.0303574 0.0290246 0.09)
(0.00934588 -0.040947 0.04)
(0.0303574 0.0290246 0.04)
(0.0111735 -0.0404864 0.09)
(0.0111735 -0.0404864 0.04)
(0.0290246 0.0303574 0.04)
(0.0290246 0.0303574 0.09)
(0.0129787 -0.0399444 0.09)
(0.0129787 -0.0399444 0.04)
(0.0276334 0.031629 0.04)
(0.0276334 0.031629 0.09)
(0.0147577 -0.0393219 0.09)
(0.0147577 -0.0393219 0.04)
(0.0261866 0.0328369 0.04)
(0.0261866 0.0328369 0.09)
(0.016507 -0.0386202 0.09)
(0.016507 -0.0386202 0.04)
(0.024687 0.0339787 0.04)
(0.024687 0.0339787 0.09)
(0.0182231 -0.0378407 0.09)
(0.0182231 -0.0378407 0.04)
(0.0231377 0.0350521 0.04)
(0.0231377 0.0350521 0.09)
(0.0199025 -0.036985 0.09)
(0.0199025 -0.036985 0.04)
(0.0215418 0.0360549 0.04)
(0.0215418 0.0360549 0.09)
(0.0215418 -0.0360549 0.09)
(0.0215418 -0.0360549 0.04)
(0.0199025 0.036985 0.04)
(0.0199025 0.036985 0.09)
(0.0231377 -0.0350521 0.09)
(0.0231377 -0.0350521 0.04)
(0.0182231 0.0378407 0.04)
(0.024687 -0.0339787 0.09)
(0.0182231 0.0378407 0.09)
(0.024687 -0.0339787 0.04)
(0.016507 0.0386202 0.04)
(0.0261866 -0.0328369 0.09)
(0.0261866 -0.0328369 0.04)
(0.016507 0.0386202 0.09)
(0.0147577 0.0393219 0.04)
(0.0276334 -0.031629 0.04)
(0.0147577 0.0393219 0.09)
(0.0276334 -0.031629 0.09)
(0.0290246 -0.0303574 0.04)
(0.0129787 0.0399444 0.04)
(0.0290246 -0.0303574 0.09)
(0.0129787 0.0399444 0.09)
(0.0303574 -0.0290246 0.04)
(0.0303574 -0.0290246 0.09)
(0.0111735 0.0404864 0.04)
(0.0111735 0.0404864 0.09)
(0.031629 -0.0276334 0.04)
(0.031629 -0.0276334 0.09)
(0.00934588 0.040947 0.04)
(0.00934588 0.040947 0.09)
(0.0328369 -0.0261866 0.04)
(0.0328369 -0.0261866 0.09)
(0.00749939 0.041325 0.09)
(0.00749939 0.041325 0.04)
(0.0339787 -0.024687 0.04)
(0.0339787 -0.024687 0.09)
(0.0056378 0.0416199 0.09)
(0.0056378 0.0416199 0.04)
(0.0350521 -0.0231377 0.04)
(0.0350521 -0.0231377 0.09)
(0.00376485 0.0418309 0.09)
(0.00376485 0.0418309 0.04)
(0.0360549 -0.0215418 0.04)
(0.0360549 -0.0215418 0.09)
(0.00188432 0.0419577 0.09)
(0.00188432 0.0419577 0.04)
(0.036985 -0.0199025 0.04)
(0.036985 -0.0199025 0.09)
(2.57176e-18 0.042 0.09)
(2.57176e-18 0.042 0.04)
(0.0378407 -0.0182231 0.04)
(0.0378407 -0.0182231 0.09)
(0.0386202 -0.016507 0.09)
(-0.00188432 0.0419577 0.09)
(0.0386202 -0.016507 0.04)
(-0.00188432 0.0419577 0.04)
(0.0393219 -0.0147577 0.09)
(-0.00376485 0.0418309 0.09)
(0.0393219 -0.0147577 0.04)
(-0.00376485 0.0418309 0.04)
(0.0399444 -0.0129787 0.09)
(0.0399444 -0.0129787 0.04)
(-0.0056378 0.0416199 0.09)
(-0.0056378 0.0416199 0.04)
(0.0404864 -0.0111735 0.09)
(0.0404864 -0.0111735 0.04)
(-0.00749939 0.041325 0.09)
(-0.00749939 0.041325 0.04)
(0.040947 -0.00934588 0.09)
(0.040947 -0.00934588 0.04)
(-0.00934588 0.040947 0.09)
(-0.00934588 0.040947 0.04)
(0.041325 -0.00749939 0.09)
(0.041325 -0.00749939 0.04)
(-0.0111735 0.0404864 0.09)
(-0.0111735 0.0404864 0.04)
(0.0416199 -0.0056378 0.09)
(0.0416199 -0.0056378 0.04)
(-0.0129787 0.0399444 0.09)
(-0.0129787 0.0399444 0.04)
(0.0418309 -0.00376485 0.09)
(0.0418309 -0.00376485 0.04)
(-0.0147577 0.0393219 0.09)
(0.0419577 -0.00188432 0.09)
(-0.0147577 0.0393219 0.04)
(0.0419577 -0.00188432 0.04)
(-0.016507 0.0386202 0.09)
(-0.016507 0.0386202 0.04)
(-0.0182231 0.0378407 0.09)
(-0.0182231 0.0378407 0.04)
(-0.0199025 0.036985 0.09)
(-0.0199025 0.036985 0.04)
(-0.0215418 0.0360549 0.09)
(-0.0215418 0.0360549 0.04)
(-0.0231377 0.0350521 0.09)
(-0.0231377 0.0350521 0.04)
(-0.024687 0.0339787 0.09)
(-0.024687 0.0339787 0.04)
(-0.0261866 0.0328369 0.09)
(-0.0261866 0.0328369 0.04)
(-0.0276334 0.031629 0.09)
(-0.0276334 0.031629 0.04)
(-0.0290246 0.0303574 0.04)
(-0.0290246 0.0303574 0.09)
(-0.0303574 0.0290246 0.04)
(-0.0303574 0.0290246 0.09)
(-0.031629 0.0276334 0.04)
(-0.031629 0.0276334 0.09)
(-0.0328369 0.0261866 0.09)
(-0.0328369 0.0261866 0.04)
(-0.0339787 0.024687 0.09)
(-0.0339787 0.024687 0.04)
(-0.0350521 0.0231377 0.09)
(-0.0350521 0.0231377 0.04)
(-0.0360549 0.0215418 0.09)
(-0.0360549 0.0215418 0.04)
(-0.036985 0.0199025 0.09)
(-0.036985 0.0199025 0.04)
(-0.0378407 0.0182231 0.09)
(-0.0378407 0.0182231 0.04)
(-0.0386202 0.016507 0.04)
(-0.0386202 0.016507 0.09)
(-0.0393219 0.0147577 0.04)
(-0.0393219 0.0147577 0.09)
(-0.0399444 0.0129787 0.04)
(-0.0399444 0.0129787 0.09)
(-0.0404864 0.0111735 0.04)
(-0.0404864 0.0111735 0.09)
(-0.040947 0.00934588 0.04)
(-0.040947 0.00934588 0.09)
(-0.041325 0.00749939 0.04)
(-0.041325 0.00749939 0.09)
(-0.0416199 0.0056378 0.04)
(-0.0416199 0.0056378 0.09)
(-0.0418309 0.00376485 0.04)
(-0.0418309 0.00376485 0.09)
(-0.0419577 0.00188432 0.04)
(-0.0419577 0.00188432 0.09)
(-0.042 5.14352e-18 0.04)
(-0.042 5.14352e-18 0.09)
(-0.0419577 -0.00188432 0.04)
(-0.0419577 -0.00188432 0.09)
(-0.0418309 -0.00376485 0.04)
(-0.0418309 -0.00376485 0.09)
(-0.0416199 -0.0056378 0.04)
(-0.0416199 -0.0056378 0.09)
(-0.041325 -0.00749939 0.04)
(-0.041325 -0.00749939 0.09)
(-0.040947 -0.00934588 0.04)
(-0.040947 -0.00934588 0.09)
(-0.0404864 -0.0111735 0.04)
(-0.0404864 -0.0111735 0.09)
(-0.0399444 -0.0129787 0.04)
(-0.0399444 -0.0129787 0.09)
(-0.0393219 -0.0147577 0.04)
(-0.0393219 -0.0147577 0.09)
(-0.0386202 -0.016507 0.04)
(-0.0386202 -0.016507 0.09)
(-0.0378407 -0.0182231 0.09)
(-0.0378407 -0.0182231 0.04)
(-0.036985 -0.0199025 0.09)
(-0.036985 -0.0199025 0.04)
(-0.0360549 -0.0215418 0.09)
(-0.0360549 -0.0215418 0.04)
(-0.0350521 -0.0231377 0.09)
(-0.0350521 -0.0231377 0.04)
(-0.0339787 -0.024687 0.09)
(-0.0339787 -0.024687 0.04)
(-0.0328369 -0.0261866 0.09)
(-0.0328369 -0.0261866 0.04)
(-0.031629 -0.0276334 0.04)
(-0.031629 -0.0276334 0.09)
(-0.0303574 -0.0290246 0.04)
(-0.0303574 -0.0290246 0.09)
(-0.0290246 -0.0303574 0.04)
(-0.0290246 -0.0303574 0.09)
(-0.0276334 -0.031629 0.04)
(-0.0276334 -0.031629 0.09)
(-0.0261866 -0.0328369 0.04)
)

// edges

280
(
(0 1)
(2 3)
(4 0)
(3 5)
(6 4)
(7 8)
(9 10)
(5 11)
(12 6)
(8 13)
(14 9)
(11 15)
(16 12)
(13 17)
(18 14)
(15 19)
(20 16)
(21 18)
(17 22)
(19 23)
(24 20)
(25 21)
(22 26)
(23 27)
(28 24)
(29 25)
(26 30)
(27 31)
(32 28)
(33 29)
(30 34)
(31 35)
(36 32)
(37 33)
(34 38)
(35 39)
(40 36)
(41 37)
(38 42)
(39 43)
(44 40)
(45 41)
(42 46)
(43 47)
(48 44)
(49 45)
(46 50)
(47 51)
(52 48)
(53 49)
(50 54)
(55 52)
(51 56)
(57 53)
(54 58)
(59 55)
(56 60)
(61 57)
(62 59)
(58 63)
(60 64)
(65 62)
(66 61)
(63 67)
(64 68)
(69 65)
(70 66)
(67 71)
(68 72)
(73 69)
(74 70)
(72 75)
(71 76)
(77 73)
(75 78)
(76 79)
(80 74)
(81 77)
(78 82)
(79 83)
(84 80)
(85 81)
(82 86)
(83 87)
(88 84)
(89 85)
(86 90)
(87 91)
(92 88)
(93 89)
(90 94)
(91 95)
(96 92)
(97 93)
(94 98)
(95 99)
(100 96)
(101 97)
(98 102)
(99 103)
(104 100)
(105 101)
(102 106)
(103 107)
(108 105)
(109 104)
(106 110)
(107 111)
(112 108)
(110 113)
(114 109)
(111 115)
(113 116)
(117 114)
(118 112)
(116 119)
(115 120)
(121 118)
(122 117)
(119 123)
(124 121)
(120 125)
(126 122)
(123 127)
(128 124)
(125 129)
(130 126)
(127 131)
(132 128)
(133 130)
(129 134)
(131 135)
(136 132)
(137 133)
(134 138)
(135 139)
(140 136)
(141 137)
(138 142)
(139 143)
(144 140)
(145 141)
(142 146)
(143 147)
(148 144)
(149 145)
(146 150)
(147 151)
(152 148)
(153 152)
(154 149)
(151 155)
(150 156)
(157 153)
(158 154)
(155 159)
(156 160)
(161 157)
(159 162)
(163 158)
(160 164)
(165 161)
(162 166)
(167 163)
(164 168)
(169 165)
(166 170)
(171 167)
(168 172)
(173 169)
(170 174)
(175 171)
(172 176)
(177 173)
(174 178)
(179 175)
(176 180)
(181 177)
(178 182)
(183 179)
(184 181)
(180 185)
(182 186)
(10 184)
(186 7)
(187 183)
(185 188)
(189 187)
(188 190)
(191 189)
(190 192)
(193 191)
(192 194)
(195 193)
(194 196)
(197 195)
(196 198)
(199 197)
(198 200)
(201 199)
(200 202)
(202 203)
(204 201)
(203 205)
(206 204)
(205 207)
(208 206)
(209 208)
(207 210)
(211 209)
(210 212)
(213 211)
(212 214)
(215 213)
(214 216)
(217 215)
(216 218)
(219 217)
(218 220)
(220 221)
(222 219)
(221 223)
(224 222)
(223 225)
(226 224)
(225 227)
(228 226)
(227 229)
(230 228)
(229 231)
(232 230)
(231 233)
(234 232)
(233 235)
(236 234)
(235 237)
(238 236)
(237 239)
(240 238)
(239 241)
(242 240)
(241 243)
(244 242)
(243 245)
(246 244)
(245 247)
(248 246)
(247 249)
(250 248)
(249 251)
(252 250)
(251 253)
(254 252)
(253 255)
(256 254)
(255 257)
(258 256)
(259 258)
(257 260)
(261 259)
(260 262)
(263 261)
(262 264)
(265 263)
(264 266)
(267 265)
(266 268)
(269 267)
(268 270)
(270 271)
(272 269)
(271 273)
(274 272)
(273 275)
(276 274)
(275 277)
(278 276)
(277 279)
(1 278)
(279 2)
)

// concaveStart mixedStart nonFeatureStart
0 0 0
// internalStart flatStart openStart multipleStart
280 280 280 280
// normals

556
(
(-0.605791 -0.795624 0)
(0 0 1)
(-0.569499 -0.821992 -0)
(0 0 -1)
(-0.569499 -0.821992 0)
(0 0 1)
(-0.532045 -0.846716 -0)
(0 0 -1)
(-0.532045 -0.846716 0)
(0 0 1)
(0.999748 0.0224431 0)
(-0 -0 -1)
(0.999748 0.0224431 0)
(0 0 1)
(-0.493478 -0.869758 -0)
(0 0 -1)
(-0.493478 -0.869758 0)
(0 0 1)
(0.997735 0.0672738 0)
(-0 -0 -1)
(0.997735 0.0672738 0)
(0 0 1)
(-0.453993 -0.891005 -0)
(0 0 -1)
(-0.453993 -0.891005 0)
(0 0 1)
(0.993714 0.111949 0)
(-0 -0 -1)
(0.993714 0.111949 0)
(0 0 1)
(-0.413562 -0.910476 -0)
(0 0 -1)
(-0.413562 -0.910476 0)
(0 0 1)
(0.987684 0.156463 0)
(0 0 1)
(0.987684 0.156463 0)
(-0 -0 -1)
(-0.372296 -0.928114 -0)
(0 0 -1)
(-0.372296 -0.928114 0)
(0 0 1)
(0.979683 0.200552 0)
(0 0 1)
(0.979683 0.200552 0)
(-0 -0 -1)
(-0.330279 -0.943883 -0)
(0 0 -1)
(-0.330279 -0.943883 0)
(0 0 1)
(0.969679 0.244381 0)
(0 0 1)
(0.969679 0.244381 0)
(-0 -0 -1)
(-0.287562 -0.957762 -0)
(0 0 -1)
(-0.287562 -0.957762 0)
(0 0 1)
(0.957762 0.287562 0)
(0 0 1)
(0.957762 0.287562 0)
(-0 -0 -1)
(-0.244381 -0.969679 -0)
(0 0 -1)
(-0.244381 -0.969679 0)
(0 0 1)
(0.943883 0.330279 0)
(0 0 1)
(0.943883 0.330279 0)
(-0 -0 -1)
(-0.200552 -0.979683 -0)
(0 0 -1)
(-0.200552 -0.979683 0)
(0 0 1)
(0.928114 0.372296 0)
(0 0 1)
(0.928114 0.372296 0)
(-0 -0 -1)
(-0.156463 -0.987684 -0)
(0 0 -1)
(-0.156463 -0.987684 0)
(0 0 1)
(0.910476 0.413562 0)
(0 0 1)
(0.910476 0.413562 0)
(-0 -0 -1)
(-0.111949 -0.993714 -0)
(0 0 -1)
(-0.111949 -0.993714 0)
(0 0 1)
(0.891005 0.453993 0)
(0 0 1)
(0.891005 0.453993 0)
(-0 -0 -1)
(-0.0672738 -0.997735 -0)
(0 0 -1)
(-0.0672738 -0.997735 0)
(0 0 1)
(0.869758 0.493478 0)
(0 0 1)
(0.869758 0.493478 0)
(-0 -0 -1)
(-0.0224431 -0.999748 0)
(0 0 1)
(-0.0224431 -0.999748 -0)
(0 0 -1)
(0.846716 0.532045 0)
(0 0 1)
(0.846716 0.532045 0)
(-0 -0 -1)
(0.0224431 -0.999748 0)
(0 0 1)
(0.0224431 -0.999748 0)
(-0 0 -1)
(0.821992 0.569499 0)
(0 0 1)
(0.0672738 -0.997735 0)
(0 0 1)
(0.821992 0.569499 0)
(-0 -0 -1)
(0.0672738 -0.997735 0)
(-0 0 -1)
(0.111949 -0.993714 0)
(0 0 1)
(0.795624 0.605791 0)
(0 0 1)
(0.795624 0.605791 0)
(-0 -0 -1)
(0.111949 -0.993714 0)
(-0 0 -1)
(0.156463 -0.987684 0)
(0 0 1)
(0.767638 0.640883 0)
(0 0 1)
(0.767638 0.640883 0)
(-0 -0 -1)
(0.156463 -0.987684 0)
(-0 0 -1)
(0.200552 -0.979683 0)
(0 0 1)
(0.738122 0.674667 0)
(0 0 1)
(0.200552 -0.979683 0)
(-0 0 -1)
(0.738122 0.674667 0)
(-0 -0 -1)
(0.244381 -0.969679 0)
(0 0 1)
(0.244381 -0.969679 0)
(-0 0 -1)
(0.707107 0.707107 0)
(0.707107 0.707107 0)
(0.287562 -0.957762 0)
(0 0 1)
(0.287562 -0.957762 0)
(-0 0 -1)
(0.674667 0.738122 0)
(0 0 -1)
(0.674667 0.738122 0)
(0 0 1)
(0.330279 -0.943883 0)
(0 0 1)
(0.330279 -0.943883 0)
(-0 0 -1)
(0.640883 0.767638 0)
(0.640883 0.767638 0)
(0.372296 -0.928114 0)
(0 0 1)
(0.372296 -0.928114 0)
(-0 0 -1)
(0.605791 0.795624 0)
(0 0 -1)
(0.605791 0.795624 0)
(0 0 1)
(0.413562 -0.910476 0)
(0 0 1)
(0.413562 -0.910476 0)
(-0 0 -1)
(0.569499 0.821992 0)
(0 0 -1)
(0.569499 0.821992 0)
(0 0 1)
(0.453993 -0.891005 0)
(0 0 1)
(0.453993 -0.891005 0)
(-0 0 -1)
(0.532045 0.846716 0)
(0 0 -1)
(0.532045 0.846716 0)
(0 0 1)
(0.493478 -0.869758 0)
(0 0 1)
(0.493478 -0.869758 0)
(-0 0 -1)
(0.493478 0.869758 0)
(0 0 -1)
(0.493478 0.869758 0)
(0 0 1)
(0.532045 -0.846716 0)
(0 0 1)
(0.532045 -0.846716 0)
(-0 0 -1)
(0.453993 0.891005 0)
(0 0 -1)
(0.569499 -0.821992 0)
(0 0 1)
(0.453993 0.891005 0)
(0 0 1)
(0.569499 -0.821992 0)
(-0 0 -1)
(0.413562 0.910476 0)
(0 0 -1)
(0.605791 -0.795624 0)
(0 0 1)
(0.605791 -0.795624 0)
(-0 0 -1)
(0.413562 0.910476 0)
(0 0 1)
(0.372296 0.928114 0)
(0 0 -1)
(0.640883 -0.767638 0)
(-0 0 -1)
(0.372296 0.928114 0)
(0 0 1)
(0.640883 -0.767638 0)
(0 0 1)
(0.674667 -0.738122 0)
(-0 0 -1)
(0.330279 0.943883 0)
(0 0 -1)
(0.674667 -0.738122 0)
(0 0 1)
(0.330279 0.943883 0)
(0 0 1)
(0.707107 -0.707107 0)
(-0 0 -1)
(0.707107 -0.707107 0)
(0 0 1)
(0.287562 0.957762 0)
(0 0 -1)
(0.287562 0.957762 0)
(0 0 1)
(0.738122 -0.674667 0)
(-0 0 -1)
(0.738122 -0.674667 0)
(0 0 1)
(0.244381 0.969679 0)
(0 0 -1)
(0.244381 0.969679 0)
(0 0 1)
(0.767638 -0.640883 0)
(-0 0 -1)
(0.767638 -0.640883 0)
(0 0 1)
(0.200552 0.979683 0)
(0 0 1)
(0.200552 0.979683 0)
(0 0 -1)
(0.795624 -0.605791 0)
(-0 0 -1)
(0.795624 -0.605791 0)
(0 0 1)
(0.156463 0.987684 0)
(0 0 1)
(0.156463 0.987684 0)
(0 0 -1)
(0.821992 -0.569499 0)
(-0 0 -1)
(0.821992 -0.569499 0)
(0 0 1)
(0.111949 0.993714 0)
(0 0 1)
(0.111949 0.993714 0)
(0 0 -1)
(0.846716 -0.532045 0)
(-0 0 -1)
(0.846716 -0.532045 0)
(0 0 1)
(0.0672738 0.997735 0)
(0 0 1)
(0.0672738 0.997735 0)
(0 0 -1)
(0.869758 -0.493478 0)
(-0 0 -1)
(0.869758 -0.493478 0)
(0 0 1)
(0.0224431 0.999748 0)
(0 0 1)
(0.0224431 0.999748 0)
(0 0 -1)
(0.891005 -0.453993 0)
(-0 0 -1)
(0.891005 -0.453993 0)
(0 0 1)
(0.910476 -0.413562 0)
(0 0 1)
(-0.0224431 0.999748 0)
(0 0 1)
(0.910476 -0.413562 0)
(-0 0 -1)
(-0.0224431 0.999748 0)
(0 0 -1)
(0.928114 -0.372296 0)
(0 0 1)
(-0.0672738 0.997735 0)
(0 0 1)
(0.928114 -0.372296 0)
(-0 0 -1)
(-0.0672738 0.997735 0)
(0 0 -1)
(0.943883 -0.330279 0)
(0 0 1)
(0.943883 -0.330279 0)
(-0 0 -1)
(-0.111949 0.993714 0)
(0 0 1)
(-0.111949 0.993714 0)
(0 0 -1)
(0.957762 -0.287562 0)
(0 0 1)
(0.957762 -0.287562 0)
(-0 0 -1)
(-0.156463 0.987684 0)
(0 0 1)
(-0.156463 0.987684 0)
(0 0 -1)
(0.969679 -0.244381 0)
(0 0 1)
(0.969679 -0.244381 0)
(-0 0 -1)
(-0.200552 0.979683 0)
(0 0 1)
(-0.200552 0.979683 0)
(0 0 -1)
(0.979683 -0.200552 0)
(0 0 1)
(0.979683 -0.200552 0)
(-0 0 -1)
(-0.244381 0.969679 0)
(0 0 1)
(-0.244381 0.969679 0)
(0 0 -1)
(0.987684 -0.156463 0)
(0 0 1)
(0.987684 -0.156463 0)
(-0 0 -1)
(-0.287562 0.957762 0)
(0 0 1)
(-0.287562 0.957762 0)
(0 0 -1)
(0.993714 -0.111949 0)
(0 0 1)
(0.993714 -0.111949 0)
(-0 0 -1)
(-0.330279 0.943883 0)
(0 0 1)
(0.997735 -0.0672738 0)
(0 0 1)
(-0.330279 0.943883 0)
(0 0 -1)
(0.997735 -0.0672738 0)
(-0 0 -1)
(0.999748 -0.0224431 0)
(0 0 1)
(0.999748 -0.0224431 0)
(-0 0 -1)
(-0.372296 0.928114 0)
(0 0 1)
(-0.372296 0.928114 0)
(0 0 -1)
(-0.413562 0.910476 0)
(0 0 1)
(-0.413562 0.910476 0)
(0 0 -1)
(-0.453993 0.891005 0)
(0 0 1)
(-0.453993 0.891005 0)
(0 0 -1)
(-0.493478 0.869758 0)
(0 0 1)
(-0.493478 0.869758 0)
(0 0 -1)
(-0.532045 0.846716 0)
(0 0 1)
(-0.532045 0.846716 0)
(0 0 -1)
(-0.569499 0.821992 0)
(0 0 1)
(-0.569499 0.821992 0)
(0 0 -1)
(-0.605791 0.795624 0)
(0 0 1)
(-0.605791 0.795624 0)
(0 0 -1)
(-0.640883 0.767638 0)
(0 0 1)
(-0.640883 0.767638 0)
(0 0 -1)
(-0.674667 0.738122 0)
(0 0 -1)
(-0.674667 0.738122 0)
(0 0 1)
(-0.707107 0.707107 0)
(0 0 -1)
(-0.707107 0.707107 0)
(0 0 1)
(-0.738122 0.674667 0)
(0 0 -1)
(-0.738122 0.674667 0)
(0 0 1)
(-0.767638 0.640883 0)
(0 0 1)
(-0.767638 0.640883 0)
(0 0 -1)
(-0.795624 0.605791 0)
(0 0 1)
(-0.795624 0.605791 0)
(0 0 -1)
(-0.821992 0.569499 0)
(0 0 1)
(-0.821992 0.569499 0)
(0 0 -1)
(-0.846716 0.532045 0)
(0 0 1)
(-0.846716 0.532045 0)
(0 0 -1)
(-0.869758 0.493478 0)
(0 0 1)
(-0.869758 0.493478 0)
(0 0 -1)
(-0.891005 0.453993 0)
(0 0 1)
(-0.891005 0.453993 0)
(0 0 -1)
(-0.910476 0.413562 0)
(0 0 -1)
(-0.910476 0.413562 0)
(0 0 1)
(-0.928114 0.372296 0)
(0 0 -1)
(-0.928114 0.372296 0)
(0 0 1)
(-0.943883 0.330279 0)
(0 0 -1)
(-0.943883 0.330279 0)
(0 0 1)
(-0.957762 0.287562 0)
(0 0 -1)
(-0.957762 0.287562 0)
(0 0 1)
(-0.969679 0.244381 0)
(0 0 -1)
(-0.969679 0.244381 0)
(0 0 1)
(-0.979683 0.200552 0)
(0 0 -1)
(-0.979683 0.200552 0)
(0 0 1)
(-0.987684 0.156463 0)
(0 0 -1)
(-0.987684 0.156463 0)
(0 0 1)
(-0.993714 0.111949 0)
(0 0 -1)
(-0.993714 0.111949 0)
(0 0 1)
(-0.997735 0.0672738 0)
(0 0 -1)
(-0.997735 0.0672738 0)
(0 0 1)
(-0.999748 0.0224431 0)
(0 0 -1)
(-0.999748 0.0224431 0)
(0 0 1)
(-0.999748 -0.0224431 -0)
(0 0 -1)
(-0.999748 -0.0224431 0)
(0 0 1)
(-0.997735 -0.0672738 -0)
(0 0 -1)
(-0.997735 -0.0672738 0)
(0 0 1)
(-0.993714 -0.111949 -0)
(0 0 -1)
(-0.993714 -0.111949 0)
(0 0 1)
(-0.987684 -0.156463 -0)
(0 0 -1)
(-0.987684 -0.156463 0)
(0 0 1)
(-0.979683 -0.200552 -0)
(0 0 -1)
(-0.979683 -0.200552 0)
(0 0 1)
(-0.969679 -0.244381 -0)
(0 0 -1)
(-0.969679 -0.244381 0)
(0 0 1)
(-0.957762 -0.287562 -0)
(0 0 -1)
(-0.957762 -0.287562 0)
(0 0 1)
(-0.943883 -0.330279 -0)
(0 0 -1)
(-0.943883 -0.330279 0)
(0 0 1)
(-0.928114 -0.372296 -0)
(0 0 -1)
(-0.928114 -0.372296 0)
(0 0 1)
(-0.910476 -0.413562 0)
(0 0 1)
(-0.910476 -0.413562 -0)
(0 0 -1)
(-0.891005 -0.453993 0)
(0 0 1)
(-0.891005 -0.453993 -0)
(0 0 -1)
(-0.869758 -0.493478 0)
(0 0 1)
(-0.869758 -0.493478 -0)
(0 0 -1)
(-0.846716 -0.532045 0)
(0 0 1)
(-0.846716 -0.532045 -0)
(0 0 -1)
(-0.821992 -0.569499 0)
(0 0 1)
(-0.821992 -0.569499 -0)
(0 0 -1)
(-0.795624 -0.605791 0)
(0 0 1)
(-0.795624 -0.605791 -0)
(0 0 -1)
(-0.767638 -0.640883 -0)
(0 0 -1)
(-0.767638 -0.640883 0)
(0 0 1)
(-0.738122 -0.674667 -0)
(0 0 -1)
(-0.738122 -0.674667 0)
(0 0 1)
(-0.707107 -0.707107 -0)
(0 0 -1)
(-0.707107 -0.707107 0)
(0 0 1)
(-0.674667 -0.738122 -0)
(0 0 -1)
(-0.674667 -0.738122 0)
(0 0 1)
(-0.640883 -0.767638 -0)
(0 0 -1)
(-0.640883 -0.767638 0)
(0 0 1)
(-0.605791 -0.795624 -0)
(0 0 -1)
)

// normal volume types

556
(
0
0
0
0
0
0
0
0
0
0
0
0
0
0
0
0
0
0
0
0
0
0
0
0
0
0
0
0
0
0
0
0
0
0
0
0
0
0
0
0
0
0
0
0
0
0
0
0
0
0
0
0
0
0
0
0
0
0
0
0
0
0
0
0
0
0
0
0
0
0
0
0
0
0
0
0
0
0
0
0
0
0
0
0
0
0
0
0
0
0
0
0
0
0
0
0
0
0
0
0
0
0
0
0
0
0
0
0
0
0
0
0
0
0
0
0
0
0
0
0
0
0
0
0
0
0
0
0
0
0
0
0
0
0
0
0
0
0
0
0
0
0
0
0
0
0
0
0
0
0
0
0
0
0
0
0
0
0
0
0
0
0
0
0
0
0
0
0
0
0
0
0
0
0
0
0
0
0
0
0
0
0
0
0
0
0
0
0
0
0
0
0
0
0
0
0
0
0
0
0
0
0
0
0
0
0
0
0
0
0
0
0
0
0
0
0
0
0
0
0
0
0
0
0
0
0
0
0
0
0
0
0
0
0
0
0
0
0
0
0
0
0
0
0
0
0
0
0
0
0
0
0
0
0
0
0
0
0
0
0
0
0
0
0
0
0
0
0
0
0
0
0
0
0
0
0
0
0
0
0
0
0
0
0
0
0
0
0
0
0
0
0
0
0
0
0
0
0
0
0
0
0
0
0
0
0
0
0
0
0
0
0
0
0
0
0
0
0
0
0
0
0
0
0
0
0
0
0
0
0
0
0
0
0
0
0
0
0
0
0
0
0
0
0
0
0
0
0
0
0
0
0
0
0
0
0
0
0
0
0
0
0
0
0
0
0
0
0
0
0
0
0
0
0
0
0
0
0
0
0
0
0
0
0
0
0
0
0
0
0
0
0
0
0
0
0
0
0
0
0
0
0
0
0
0
0
0
0
0
0
0
0
0
0
0
0
0
0
0
0
0
0
0
0
0
0
0
0
0
0
0
0
0
0
0
0
0
0
0
0
0
0
0
0
0
0
0
0
0
0
0
0
0
0
0
0
0
0
0
0
0
0
0
0
0
0
0
0
0
0
0
0
0
0
0
0
0
0
0
0
0
0
0
0
0
0
0
0
0
0
0
0
0
0
0
0
0
0
0
0
0
0
0
0
0
0
0
0
0
0
0
0
0
0
0
0
0
0
0
0
0
0
0
0
0
0
0
0
0
0
0
0
0
0
0
0
0
0
0
0
0
0
0
0
0
0
0
0
0
0
0
0
0
0
0
0
)

// normalDirections

280
(
2(1 -1)
2(1 -1)
2(1 -1)
2(1 -1)
2(1 -1)
2(1 -1)
2(1 -1)
2(1 -1)
2(1 -1)
2(1 -1)
2(1 -1)
2(1 -1)
2(1 -1)
2(1 -1)
2(1 -1)
2(1 -1)
2(1 -1)
2(1 -1)
2(1 -1)
2(1 -1)
2(1 -1)
2(1 -1)
2(1 -1)
2(1 -1)
2(1 -1)
2(1 -1)
2(1 -1)
2(1 -1)
2(1 -1)
2(1 -1)
2(1 -1)
2(1 -1)
2(1 -1)
2(1 -1)
2(1 -1)
2(1 -1)
2(1 -1)
2(1 -1)
2(1 -1)
2(1 -1)
2(1 -1)
2(1 -1)
2(1 -1)
2(1 -1)
2(1 -1)
2(1 -1)
2(1 -1)
2(1 -1)
2(1 -1)
2(1 -1)
2(1 -1)
2(1 -1)
2(1 -1)
2(1 -1)
2(1 -1)
2(1 -1)
2(1 -1)
2(1 -1)
2(1 -1)
2(1 -1)
2(1 -1)
2(1 -1)
2(1 -1)
2(1 -1)
2(1 -1)
2(1 -1)
2(1 -1)
2(1 -1)
2(1 -1)
2(1 -1)
2(1 -1)
2(1 -1)
2(1 -1)
2(1 -1)
2(1 -1)
2(1 -1)
2(1 -1)
2(1 -1)
2(1 -1)
2(1 -1)
2(1 -1)
2(1 -1)
2(1 -1)
2(1 -1)
2(1 -1)
2(1 -1)
2(1 -1)
2(1 -1)
2(1 -1)
2(1 -1)
2(1 -1)
2(1 -1)
2(1 -1)
2(1 -1)
2(1 -1)
2(1 -1)
2(1 -1)
2(1 -1)
2(1 -1)
2(1 -1)
2(1 -1)
2(1 -1)
2(1 -1)
2(1 -1)
2(1 -1)
2(1 -1)
2(1 -1)
2(1 -1)
2(1 -1)
2(1 -1)
2(1 -1)
2(1 -1)
2(1 -1)
2(1 -1)
2(1 -1)
2(1 -1)
2(1 -1)
2(1 -1)
2(1 -1)
2(1 -1)
2(1 -1)
2(1 -1)
2(1 -1)
2(1 -1)
2(1 -1)
2(1 -1)
2(1 -1)
2(1 -1)
2(1 -1)
2(1 -1)
2(1 -1)
2(1 -1)
2(1 -1)
2(1 -1)
2(1 -1)
2(1 -1)
2(1 -1)
2(1 -1)
2(1 -1)
2(1 -1)
2(1 -1)
2(1 -1)
2(1 -1)
2(1 -1)
2(1 -1)
2(1 -1)
2(1 -1)
2(1 -1)
2(1 -1)
2(1 -1)
2(1 -1)
2(1 -1)
2(1 -1)
2(1 -1)
2(1 -1)
2(1 -1)
2(1 -1)
2(1 -1)
2(1 -1)
2(1 -1)
2(1 -1)
2(1 -1)
2(1 -1)
2(1 -1)
2(1 -1)
2(1 -1)
2(1 -1)
2(1 -1)
2(1 -1)
2(1 -1)
2(1 -1)
2(1 -1)
2(1 -1)
2(1 -1)
2(1 -1)
2(1 -1)
2(1 -1)
2(1 -1)
2(1 -1)
2(1 -1)
2(1 -1)
2(1 -1)
2(1 -1)
2(1 -1)
2(1 -1)
2(1 -1)
2(1 -1)
2(1 -1)
2(1 -1)
2(1 -1)
2(1 -1)
2(1 -1)
2(1 -1)
2(1 -1)
2(1 -1)
2(1 -1)
2(1 -1)
2(1 -1)
2(1 -1)
2(1 -1)
2(1 -1)
2(1 -1)
2(1 -1)
2(1 -1)
2(1 -1)
2(1 -1)
2(1 -1)
2(1 -1)
2(1 -1)
2(1 -1)
2(1 -1)
2(1 -1)
2(1 -1)
2(1 -1)
2(1 -1)
2(1 -1)
2(1 -1)
2(1 -1)
2(1 -1)
2(1 -1)
2(1 -1)
2(1 -1)
2(1 -1)
2(1 -1)
2(1 -1)
2(1 -1)
2(1 -1)
2(1 -1)
2(1 -1)
2(1 -1)
2(1 -1)
2(1 -1)
2(1 -1)
2(1 -1)
2(1 -1)
2(1 -1)
2(1 -1)
2(1 -1)
2(1 -1)
2(1 -1)
2(1 -1)
2(1 -1)
2(1 -1)
2(1 -1)
2(1 -1)
2(1 -1)
2(1 -1)
2(1 -1)
2(1 -1)
2(1 -1)
2(1 -1)
2(1 -1)
2(1 -1)
2(1 -1)
2(1 -1)
2(1 -1)
2(1 -1)
2(1 -1)
2(1 -1)
2(1 -1)
2(1 -1)
2(1 -1)
2(1 -1)
2(1 -1)
2(1 -1)
2(1 -1)
2(1 -1)
2(1 -1)
2(1 -1)
2(1 -1)
2(1 -1)
2(1 -1)
2(1 -1)
2(1 -1)
2(1 -1)
2(1 -1)
2(1 -1)
2(1 -1)
2(1 -1)
2(1 -1)
)

// edgeNormals

280
(
2(0 1)
2(2 3)
2(4 5)
2(6 7)
2(8 9)
2(10 11)
2(12 13)
2(14 15)
2(16 17)
2(18 19)
2(20 21)
2(22 23)
2(24 25)
2(26 27)
2(28 29)
2(30 31)
2(32 33)
2(34 35)
2(36 37)
2(38 39)
2(40 41)
2(42 43)
2(44 45)
2(46 47)
2(48 49)
2(50 51)
2(52 53)
2(54 55)
2(56 57)
2(58 59)
2(60 61)
2(62 63)
2(64 65)
2(66 67)
2(68 69)
2(70 71)
2(72 73)
2(74 75)
2(76 77)
2(78 79)
2(80 81)
2(82 83)
2(84 85)
2(86 87)
2(88 89)
2(90 91)
2(92 93)
2(94 95)
2(96 97)
2(98 99)
2(100 101)
2(102 103)
2(104 105)
2(106 107)
2(108 109)
2(110 111)
2(112 113)
2(114 115)
2(116 117)
2(118 119)
2(120 121)
2(122 123)
2(124 125)
2(126 127)
2(128 129)
2(130 131)
2(132 133)
2(134 135)
2(136 137)
2(138 139)
2(140 141)
2(142 143)
2(144 145)
2(146 147)
2(148 149)
2(150 145)
2(151 141)
2(152 153)
2(154 155)
2(156 157)
2(158 159)
2(160 161)
2(162 163)
2(164 157)
2(165 159)
2(166 167)
2(168 169)
2(170 171)
2(172 173)
2(174 175)
2(176 177)
2(178 179)
2(180 181)
2(182 183)
2(184 185)
2(186 187)
2(188 189)
2(190 191)
2(192 193)
2(194 195)
2(196 197)
2(198 199)
2(200 201)
2(202 203)
2(204 205)
2(206 207)
2(208 209)
2(210 211)
2(212 213)
2(214 215)
2(216 217)
2(218 219)
2(220 221)
2(222 223)
2(224 225)
2(226 227)
2(228 229)
2(230 231)
2(232 233)
2(234 235)
2(236 237)
2(238 239)
2(240 241)
2(242 243)
2(244 245)
2(246 247)
2(248 249)
2(250 251)
2(252 253)
2(254 255)
2(256 257)
2(258 259)
2(260 261)
2(262 263)
2(264 265)
2(266 267)
2(268 269)
2(270 271)
2(272 273)
2(274 275)
2(276 277)
2(278 279)
2(280 281)
2(282 283)
2(284 285)
2(286 287)
2(288 289)
2(290 291)
2(292 293)
2(294 295)
2(296 297)
2(298 299)
2(300 301)
2(302 303)
2(304 305)
2(306 307)
2(308 309)
2(310 311)
2(312 313)
2(314 315)
2(316 317)
2(318 319)
2(320 321)
2(322 323)
2(324 325)
2(326 327)
2(328 329)
2(330 331)
2(332 333)
2(334 335)
2(336 337)
2(338 339)
2(340 341)
2(342 343)
2(344 345)
2(346 347)
2(348 349)
2(350 351)
2(352 353)
2(354 355)
2(356 357)
2(358 359)
2(360 361)
2(362 363)
2(364 365)
2(366 367)
2(368 369)
2(370 371)
2(372 373)
2(374 375)
2(376 377)
2(378 379)
2(380 381)
2(382 383)
2(384 385)
2(386 387)
2(388 389)
2(390 391)
2(392 393)
2(394 395)
2(396 397)
2(398 399)
2(400 401)
2(402 403)
2(404 405)
2(406 407)
2(408 409)
2(410 411)
2(412 413)
2(414 415)
2(416 417)
2(418 419)
2(420 421)
2(422 423)
2(424 425)
2(426 427)
2(428 429)
2(430 431)
2(432 433)
2(434 435)
2(436 437)
2(438 439)
2(440 441)
2(442 443)
2(444 445)
2(446 447)
2(448 449)
2(450 451)
2(452 453)
2(454 455)
2(456 457)
2(458 459)
2(460 461)
2(462 463)
2(464 465)
2(466 467)
2(468 469)
2(470 471)
2(472 473)
2(474 475)
2(476 477)
2(478 479)
2(480 481)
2(482 483)
2(484 485)
2(486 487)
2(488 489)
2(490 491)
2(492 493)
2(494 495)
2(496 497)
2(498 499)
2(500 501)
2(502 503)
2(504 505)
2(506 507)
2(508 509)
2(510 511)
2(512 513)
2(514 515)
2(516 517)
2(518 519)
2(520 521)
2(522 523)
2(524 525)
2(526 527)
2(528 529)
2(530 531)
2(532 533)
2(534 535)
2(536 537)
2(538 539)
2(540 541)
2(542 543)
2(544 545)
2(546 547)
2(548 549)
2(550 551)
2(552 553)
2(554 555)
)

// featurePointNormals
0()
// featurePointEdges
0()
// regionEdges
0()


// ************************************************************************* //
