/*--------------------------------*- C++ -*----------------------------------*\
| =========                 |                                                 |
| \\      /  F ield         | OpenFOAM: The Open Source CFD Toolbox           |
|  \\    /   O peration     | Version:  4.0                                   |
|   \\  /    A nd           | Web:      www.OpenFOAM.org                      |
|    \\/     M anipulation  |                                                 |
\*---------------------------------------------------------------------------*/
FoamFile
{
    version     2.0;
    format      ascii;
    class       extendedFeatureEdgeMesh;
    location    "constant/extendedFeatureEdgeMesh";
    object      Outlet.extendedFeatureEdgeMesh;
}
// * * * * * * * * * * * * * * * * * * * * * * * * * * * * * * * * * * * * * //

// points

177
(
(0.00267913 0.00422164 0.25)
(0.00364484 0.00342274 0.25)
(0.0291612 0.0342671 0.25)
(0.0286845 0.0346731 0.25)
(0.00154508 0.00475528 0.25)
(0.0282967 0.0351647 0.25)
(0.00438153 0.00240877 0.25)
(0.0297083 0.0339626 0.25)
(0.028013 0.0357228 0.25)
(0.00484292 0.00124345 0.25)
(0.0303045 0.0337714 0.25)
(-0.0383446 0.0480826 0.25)
(-0.0425004 0.0444519 0.25)
(0.00438153 -0.00240877 0.25)
(0.00364484 -0.00342274 0.25)
(0.00484379 0.051873 0.25)
(0.00407293 0.051675 0.25)
(0.0463139 -0.0404632 0.25)
(0.0497546 -0.0361488 0.25)
(-0.0338802 0.0513263 0.25)
(0.0278442 0.0363257 0.25)
(-0.00318712 0.00385257 0.25)
(-0.0021289 0.00452414 0.25)
(0.00288541 0.0579002 0.25)
(0.003675 0.058 0.25)
(0.00214543 0.0576073 0.25)
(0.0527946 -0.0315433 0.25)
(0.00446459 0.0579002 0.25)
(-0.0291429 0.0541566 0.25)
(0.00275919 0.0614381 0.25)
(-0.00275919 0.0614381 0.25)
(0.0309266 0.0337009 0.25)
(0.0554096 -0.0266838 0.25)
(0.051675 0.00407293 0.25)
(0.051873 0.00484379 0.25)
(0.00554122 0.0522564 0.25)
(0.0277971 0.0369501 0.25)
(0.0315505 0.0337539 0.25)
(0.0522564 0.00554122 0.25)
(0.0278735 0.0375716 0.25)
(0.032152 0.0339283 0.25)
(0.0528012 0.00612138 0.25)
(0.00612138 0.0528012 0.25)
(0.0575784 -0.0216096 0.25)
(0.0592837 -0.0163613 0.25)
(0.0280704 0.0381661 0.25)
(-0.013685 0.0599581 0.25)
(-0.0190046 0.05849 0.25)
(-0.024171 0.056551 0.25)
(0.0615 -1.50632e-17 0.25)
(0.0612524 0.00551282 0.25)
(0.0579002 0.00446459 0.25)
(0.058 0.003675 0.25)
(0.0576073 0.00520457 0.25)
(0.0571395 0.00584844 0.25)
(0.00484292 -0.00124345 0.25)
(0.0579002 0.00288541 0.25)
(0.0528012 0.00122862 0.25)
(0.0522564 0.00180878 0.25)
(0.00180878 0.0522564 0.25)
(0.00122862 0.0528012 0.25)
(0.0534731 0.000802174 0.25)
(0.0605117 -0.0109812 0.25)
(-0.00825535 0.0609434 0.25)
(0.000802174 0.0534731 0.25)
(0.0283801 0.0387104 0.25)
(0.005 -1.22465e-18 0.25)
(0.051873 0.00250621 0.25)
(-0.000936907 0.00491144 0.25)
(0.00250621 0.051873 0.25)
(0.0542301 0.000556238 0.25)
(0.000556238 0.0542301 0.25)
(0.051675 0.00327707 0.25)
(0.000313953 0.00499013 0.25)
(0.00327707 0.051675 0.25)
(0.000506265 0.0550244 0.25)
(0.00825535 0.0609434 0.25)
(0.00635574 0.0565262 0.25)
(0.0066946 0.0558061 0.25)
(0.00584844 0.0571395 0.25)
(0.00520457 0.0576073 0.25)
(0.0612524 -0.00551282 0.25)
(0.0550244 0.000506265 0.25)
(0.0558061 0.000655396 0.25)
(0.0565262 0.000994259 0.25)
(0.0605117 0.0109812 0.25)
(0.0565262 0.00635574 0.25)
(0.0558061 0.0066946 0.25)
(0.0550244 0.00684374 0.25)
(0.000994259 0.0565262 0.25)
(0.00150156 0.0571395 0.25)
(0.000655396 0.0558061 0.25)
(0.013685 0.0599581 0.25)
(0.00684374 0.0550244 0.25)
(0.00679376 0.0542301 0.25)
(0.0542301 0.00679376 0.25)
(0.0534731 0.00654783 0.25)
(0.0592837 0.0163613 0.25)
(0.00654783 0.0534731 0.25)
(0.0190046 0.05849 0.25)
(0.0575784 0.0216096 0.25)
(0.024171 0.056551 0.25)
(0.0287907 0.0391834 0.25)
(0.0327075 0.0342174 0.25)
(0.0554096 0.0266838 0.25)
(-0.0463139 -0.0404632 0.25)
(-0.0425004 -0.0444519 0.25)
(-0.0383446 -0.0480826 0.25)
(-0.0338802 -0.0513263 0.25)
(0.0291429 0.0541566 0.25)
(0.0292863 0.0395666 0.25)
(0.0298475 0.0398451 0.25)
(0.0527946 0.0315433 0.25)
(0.0335971 0.0350908 0.25)
(0.0331956 0.03461 0.25)
(0.0338802 0.0513263 0.25)
(-0.0527946 -0.0315433 0.25)
(-0.0497546 -0.0361488 0.25)
(0.0304526 0.040008 0.25)
(0.0310777 0.0400488 0.25)
(-0.00318712 -0.00385257 0.25)
(-0.00404508 -0.00293893 0.25)
(0.0316986 0.0399662 0.25)
(-0.0021289 -0.00452414 0.25)
(0.0497546 0.0361488 0.25)
(-0.0291429 -0.0541566 0.25)
(-0.024171 -0.056551 0.25)
(-0.0190046 -0.05849 0.25)
(0.0338965 0.0356412 0.25)
(0.0322908 0.0397635 0.25)
(0.0327826 0.0394832 0.25)
(0.0332163 0.0391207 0.25)
(0.0383446 0.0480826 0.25)
(0.0463139 0.0404632 0.25)
(0.034087 0.0374864 0.25)
(0.0341463 0.0368629 0.25)
(0.0340819 0.0362397 0.25)
(0.0571395 0.00150156 0.25)
(0.0576073 0.00214543 0.25)
(0.0425004 0.0444519 0.25)
(-0.0592837 -0.0163613 0.25)
(-0.0575784 -0.0216096 0.25)
(-0.0554096 -0.0266838 0.25)
(0.0336124 0.0386378 0.25)
(0.0339066 0.0380859 0.25)
(-0.00464888 -0.00184062 0.25)
(-0.000936907 -0.00491144 0.25)
(-0.013685 -0.0599581 0.25)
(-0.00825535 -0.0609434 0.25)
(-0.00275919 -0.0614381 0.25)
(-0.0615 7.53158e-18 0.25)
(-0.0612524 -0.00551282 0.25)
(-0.0605117 -0.0109812 0.25)
(-0.00496057 -0.000626666 0.25)
(0.000313953 -0.00499013 0.25)
(0.00275919 -0.0614381 0.25)
(0.00825535 -0.0609434 0.25)
(0.013685 -0.0599581 0.25)
(-0.0592837 0.0163613 0.25)
(-0.0605117 0.0109812 0.25)
(-0.0612524 0.00551282 0.25)
(-0.00496057 0.000626666 0.25)
(0.00154508 -0.00475528 0.25)
(0.0190046 -0.05849 0.25)
(0.024171 -0.056551 0.25)
(-0.00464888 0.00184062 0.25)
(-0.0527946 0.0315433 0.25)
(-0.0554096 0.0266838 0.25)
(-0.0575784 0.0216096 0.25)
(0.00267913 -0.00422164 0.25)
(0.0291429 -0.0541566 0.25)
(0.0338802 -0.0513263 0.25)
(0.0383446 -0.0480826 0.25)
(-0.0463139 0.0404632 0.25)
(-0.0497546 0.0361488 0.25)
(-0.00404508 0.00293893 0.25)
(0.0425004 -0.0444519 0.25)
)

// edges

177
(
(0 1)
(2 3)
(4 0)
(3 5)
(1 6)
(7 2)
(5 8)
(6 9)
(10 7)
(11 12)
(13 14)
(15 16)
(17 18)
(19 11)
(8 20)
(21 22)
(23 24)
(25 23)
(18 26)
(24 27)
(28 19)
(29 30)
(31 10)
(26 32)
(33 34)
(35 15)
(20 36)
(37 31)
(34 38)
(36 39)
(40 37)
(38 41)
(42 35)
(43 44)
(39 45)
(46 47)
(47 48)
(49 50)
(51 52)
(53 51)
(54 53)
(55 13)
(52 56)
(57 58)
(32 43)
(48 28)
(59 60)
(61 57)
(44 62)
(63 46)
(60 64)
(45 65)
(66 55)
(58 67)
(22 68)
(69 59)
(70 61)
(64 71)
(9 66)
(67 72)
(68 73)
(74 69)
(71 75)
(76 29)
(77 78)
(79 77)
(80 79)
(62 81)
(27 80)
(82 70)
(72 33)
(73 4)
(16 74)
(83 82)
(84 83)
(50 85)
(86 54)
(87 86)
(88 87)
(89 90)
(91 89)
(75 91)
(30 63)
(92 76)
(93 94)
(78 93)
(95 88)
(96 95)
(85 97)
(98 42)
(94 98)
(99 92)
(90 25)
(97 100)
(41 96)
(101 99)
(65 102)
(103 40)
(100 104)
(105 106)
(106 107)
(107 108)
(109 101)
(102 110)
(110 111)
(104 112)
(113 114)
(114 103)
(115 109)
(116 117)
(111 118)
(117 105)
(118 119)
(120 121)
(119 122)
(123 120)
(112 124)
(108 125)
(125 126)
(126 127)
(128 113)
(129 130)
(130 131)
(132 115)
(122 129)
(124 133)
(81 49)
(134 135)
(135 136)
(137 84)
(136 128)
(138 137)
(56 138)
(139 132)
(133 139)
(140 141)
(141 142)
(131 143)
(142 116)
(143 144)
(144 134)
(121 145)
(146 123)
(127 147)
(147 148)
(148 149)
(150 151)
(151 152)
(152 140)
(145 153)
(154 146)
(149 155)
(155 156)
(156 157)
(158 159)
(159 160)
(160 150)
(153 161)
(162 154)
(157 163)
(163 164)
(161 165)
(166 167)
(167 168)
(168 158)
(169 162)
(164 170)
(170 171)
(171 172)
(173 174)
(174 166)
(165 175)
(172 176)
(14 169)
(175 21)
(12 173)
(176 17)
)

// concaveStart mixedStart nonFeatureStart
0 0 0
// internalStart flatStart openStart multipleStart
0 0 0 177
// normals
177{(0 0 1)}
// normal volume types

177
(
0
0
0
0
0
0
0
0
0
0
0
0
0
0
0
0
0
0
0
0
0
0
0
0
0
0
0
0
0
0
0
0
0
0
0
0
0
0
0
0
0
0
0
0
0
0
0
0
0
0
0
0
0
0
0
0
0
0
0
0
0
0
0
0
0
0
0
0
0
0
0
0
0
0
0
0
0
0
0
0
0
0
0
0
0
0
0
0
0
0
0
0
0
0
0
0
0
0
0
0
0
0
0
0
0
0
0
0
0
0
0
0
0
0
0
0
0
0
0
0
0
0
0
0
0
0
0
0
0
0
0
0
0
0
0
0
0
0
0
0
0
0
0
0
0
0
0
0
0
0
0
0
0
0
0
0
0
0
0
0
0
0
0
0
0
0
0
0
0
0
0
0
0
0
0
0
0
)

// normalDirections

177
(
1(1)
1(1)
1(1)
1(1)
1(1)
1(1)
1(1)
1(1)
1(1)
1(1)
1(1)
1(1)
1(1)
1(1)
1(1)
1(1)
1(1)
1(1)
1(1)
1(1)
1(1)
1(1)
1(1)
1(1)
1(1)
1(1)
1(1)
1(1)
1(1)
1(1)
1(1)
1(1)
1(1)
1(1)
1(1)
1(1)
1(1)
1(1)
1(1)
1(1)
1(1)
1(1)
1(1)
1(1)
1(1)
1(1)
1(1)
1(1)
1(1)
1(1)
1(1)
1(1)
1(1)
1(1)
1(1)
1(1)
1(1)
1(1)
1(1)
1(1)
1(1)
1(1)
1(1)
1(1)
1(1)
1(1)
1(1)
1(1)
1(1)
1(1)
1(1)
1(1)
1(1)
1(1)
1(1)
1(1)
1(1)
1(1)
1(1)
1(1)
1(1)
1(1)
1(1)
1(1)
1(1)
1(1)
1(1)
1(1)
1(1)
1(1)
1(1)
1(1)
1(1)
1(1)
1(1)
1(1)
1(1)
1(1)
1(1)
1(1)
1(1)
1(1)
1(1)
1(1)
1(1)
1(1)
1(1)
1(1)
1(1)
1(1)
1(1)
1(1)
1(1)
1(1)
1(1)
1(1)
1(1)
1(1)
1(1)
1(1)
1(1)
1(1)
1(1)
1(1)
1(1)
1(1)
1(1)
1(1)
1(1)
1(1)
1(1)
1(1)
1(1)
1(1)
1(1)
1(1)
1(1)
1(1)
1(1)
1(1)
1(1)
1(1)
1(1)
1(1)
1(1)
1(1)
1(1)
1(1)
1(1)
1(1)
1(1)
1(1)
1(1)
1(1)
1(1)
1(1)
1(1)
1(1)
1(1)
1(1)
1(1)
1(1)
1(1)
1(1)
1(1)
1(1)
1(1)
1(1)
1(1)
1(1)
1(1)
1(1)
1(1)
1(1)
1(1)
1(1)
1(1)
)

// edgeNormals

177
(
1(0)
1(1)
1(2)
1(3)
1(4)
1(5)
1(6)
1(7)
1(8)
1(9)
1(10)
1(11)
1(12)
1(13)
1(14)
1(15)
1(16)
1(17)
1(18)
1(19)
1(20)
1(21)
1(22)
1(23)
1(24)
1(25)
1(26)
1(27)
1(28)
1(29)
1(30)
1(31)
1(32)
1(33)
1(34)
1(35)
1(36)
1(37)
1(38)
1(39)
1(40)
1(41)
1(42)
1(43)
1(44)
1(45)
1(46)
1(47)
1(48)
1(49)
1(50)
1(51)
1(52)
1(53)
1(54)
1(55)
1(56)
1(57)
1(58)
1(59)
1(60)
1(61)
1(62)
1(63)
1(64)
1(65)
1(66)
1(67)
1(68)
1(69)
1(70)
1(71)
1(72)
1(73)
1(74)
1(75)
1(76)
1(77)
1(78)
1(79)
1(80)
1(81)
1(82)
1(83)
1(84)
1(85)
1(86)
1(87)
1(88)
1(89)
1(90)
1(91)
1(92)
1(93)
1(94)
1(95)
1(96)
1(97)
1(98)
1(99)
1(100)
1(101)
1(102)
1(103)
1(104)
1(105)
1(106)
1(107)
1(108)
1(109)
1(110)
1(111)
1(112)
1(113)
1(114)
1(115)
1(116)
1(117)
1(118)
1(119)
1(120)
1(121)
1(122)
1(123)
1(124)
1(125)
1(126)
1(127)
1(128)
1(129)
1(130)
1(131)
1(132)
1(133)
1(134)
1(135)
1(136)
1(137)
1(138)
1(139)
1(140)
1(141)
1(142)
1(143)
1(144)
1(145)
1(146)
1(147)
1(148)
1(149)
1(150)
1(151)
1(152)
1(153)
1(154)
1(155)
1(156)
1(157)
1(158)
1(159)
1(160)
1(161)
1(162)
1(163)
1(164)
1(165)
1(166)
1(167)
1(168)
1(169)
1(170)
1(171)
1(172)
1(173)
1(174)
1(175)
1(176)
)

// featurePointNormals
0()
// featurePointEdges
0()
// regionEdges

177
(
0
1
2
3
4
5
6
7
8
9
10
11
12
13
14
15
16
17
18
19
20
21
22
23
24
25
26
27
28
29
30
31
32
33
34
35
36
37
38
39
40
41
42
43
44
45
46
47
48
49
50
51
52
53
54
55
56
57
58
59
60
61
62
63
64
65
66
67
68
69
70
71
72
73
74
75
76
77
78
79
80
81
82
83
84
85
86
87
88
89
90
91
92
93
94
95
96
97
98
99
100
101
102
103
104
105
106
107
108
109
110
111
112
113
114
115
116
117
118
119
120
121
122
123
124
125
126
127
128
129
130
131
132
133
134
135
136
137
138
139
140
141
142
143
144
145
146
147
148
149
150
151
152
153
154
155
156
157
158
159
160
161
162
163
164
165
166
167
168
169
170
171
172
173
174
175
176
)



// ************************************************************************* //
