/*--------------------------------*- C++ -*----------------------------------*\
| =========                 |                                                 |
| \\      /  F ield         | OpenFOAM: The Open Source CFD Toolbox           |
|  \\    /   O peration     | Version:  4.0                                   |
|   \\  /    A nd           | Web:      www.OpenFOAM.org                      |
|    \\/     M anipulation  |                                                 |
\*---------------------------------------------------------------------------*/
FoamFile
{
    version     2.0;
    format      ascii;
    class       extendedFeatureEdgeMesh;
    location    "constant/extendedFeatureEdgeMesh";
    object      ReactorWalls.extendedFeatureEdgeMesh;
}
// * * * * * * * * * * * * * * * * * * * * * * * * * * * * * * * * * * * * * //

// points

779
(
(0.054825 0.00025 0.033242)
(0.054825 0.000433013 0.033425)
(0.00025 0.054825 0.033242)
(0.000433013 0.054825 0.033425)
(0.0583669 -0.0193792 0.25)
(0.0570054 -0.0230789 0.25)
(0.0594886 -0.0155998 0.25)
(0.0603659 -0.0117563 0.25)
(0.0613736 0.00394032 0.25)
(0.0615 -1.50632e-17 0.25)
(0.0609951 -0.00786445 0.25)
(0.0609951 0.00786445 0.25)
(0.0613736 -0.00394032 0.25)
(0.0603659 0.0117563 0.25)
(0.0594886 0.0155998 0.25)
(0.0583669 0.0193792 0.25)
(0.0570054 0.0230789 0.25)
(0.0554096 0.0266838 0.25)
(0.0535861 0.0301791 0.25)
(0.0515424 0.0335504 0.25)
(0.0492869 0.0367838 0.25)
(0.0468289 0.0398661 0.25)
(0.0441785 0.0427845 0.25)
(0.0413465 0.0455271 0.25)
(0.0383446 0.0480826 0.25)
(0.0351852 0.0504406 0.25)
(0.0318811 0.0525913 0.25)
(0.0284461 0.0545259 0.25)
(0.0248942 0.0562364 0.25)
(0.02124 0.0577158 0.25)
(0.0174984 0.0589581 0.25)
(0.013685 0.0599581 0.25)
(0.00981539 0.0607117 0.25)
(0.00590542 0.0612158 0.25)
(0.00197117 0.0614684 0.25)
(-0.00197117 0.0614684 0.25)
(-0.00590542 0.0612158 0.25)
(-0.00981539 0.0607117 0.25)
(-0.013685 0.0599581 0.25)
(-0.0174984 0.0589581 0.25)
(-0.02124 0.0577158 0.25)
(-0.0248942 0.0562364 0.25)
(-0.0284461 0.0545259 0.25)
(-0.0318811 0.0525913 0.25)
(-0.0351852 0.0504406 0.25)
(-0.0383446 0.0480826 0.25)
(-0.0413465 0.0455271 0.25)
(-0.0441785 0.0427845 0.25)
(-0.0468289 0.0398661 0.25)
(-0.0492869 0.0367838 0.25)
(-0.0515424 0.0335504 0.25)
(-0.0535861 0.0301791 0.25)
(-0.0554096 0.0266838 0.25)
(-0.0570054 0.0230789 0.25)
(-0.0583669 0.0193792 0.25)
(-0.0594886 0.0155998 0.25)
(-0.0603659 0.0117563 0.25)
(-0.0609951 0.00786445 0.25)
(-0.0613736 0.00394032 0.25)
(-0.0615 6.21546e-17 0.25)
(-0.0613736 -0.00394032 0.25)
(-0.0609951 -0.00786445 0.25)
(-0.0603659 -0.0117563 0.25)
(-0.0594886 -0.0155998 0.25)
(-0.0583669 -0.0193792 0.25)
(-0.0570054 -0.0230789 0.25)
(-0.0554096 -0.0266838 0.25)
(-0.0535861 -0.0301791 0.25)
(-0.0515424 -0.0335504 0.25)
(-0.0492869 -0.0367838 0.25)
(-0.0468289 -0.0398661 0.25)
(-0.0441785 -0.0427845 0.25)
(-0.0413465 -0.0455271 0.25)
(-0.0383446 -0.0480826 0.25)
(-0.0351852 -0.0504406 0.25)
(-0.0318811 -0.0525913 0.25)
(-0.0284461 -0.0545259 0.25)
(-0.0248942 -0.0562364 0.25)
(-0.02124 -0.0577158 0.25)
(-0.0174984 -0.0589581 0.25)
(-0.013685 -0.0599581 0.25)
(-0.00981539 -0.0607117 0.25)
(-0.00590542 -0.0612158 0.25)
(-0.00197117 -0.0614684 0.25)
(0.00197117 -0.0614684 0.25)
(0.00590542 -0.0612158 0.25)
(0.00981539 -0.0607117 0.25)
(0.013685 -0.0599581 0.25)
(0.0174984 -0.0589581 0.25)
(0.02124 -0.0577158 0.25)
(0.0248942 -0.0562364 0.25)
(0.0284461 -0.0545259 0.25)
(0.0318811 -0.0525913 0.25)
(0.0351852 -0.0504406 0.25)
(0.0383446 -0.0480826 0.25)
(0.0413465 -0.0455271 0.25)
(0.0441785 -0.0427845 0.25)
(0.0468289 -0.0398661 0.25)
(0.0492869 -0.0367838 0.25)
(0.0515424 -0.0335504 0.25)
(0.0535861 -0.0301791 0.25)
(0.0554096 -0.0266838 0.25)
(0.0550244 0.000506265 0.25)
(0.0558061 0.000655396 0.25)
(0.0565262 0.000994259 0.25)
(0.058 0.003675 0.25)
(0.0579002 0.00446459 0.25)
(0.0571395 0.00150156 0.25)
(0.0576073 0.00520457 0.25)
(0.0576073 0.00214543 0.25)
(0.0579002 0.00288541 0.25)
(0.0571395 0.00584844 0.25)
(0.0565262 0.00635574 0.25)
(0.0558061 0.0066946 0.25)
(0.0550244 0.00684374 0.25)
(0.0542301 0.00679376 0.25)
(0.0534731 0.00654783 0.25)
(0.0528012 0.00612138 0.25)
(0.0522564 0.00554122 0.25)
(0.051873 0.00484379 0.25)
(0.051675 0.00407293 0.25)
(0.051675 0.00327707 0.25)
(0.051873 0.00250621 0.25)
(0.0522564 0.00180878 0.25)
(0.0528012 0.00122862 0.25)
(0.0534731 0.000802174 0.25)
(0.0542301 0.000556238 0.25)
(0.00679376 0.0542301 0.25)
(0.00684374 0.0550244 0.25)
(0.0066946 0.0558061 0.25)
(0.00635574 0.0565262 0.25)
(0.003675 0.058 0.25)
(0.00288541 0.0579002 0.25)
(0.00584844 0.0571395 0.25)
(0.00214543 0.0576073 0.25)
(0.00520457 0.0576073 0.25)
(0.00150156 0.0571395 0.25)
(0.00446459 0.0579002 0.25)
(0.000994259 0.0565262 0.25)
(0.000655396 0.0558061 0.25)
(0.000506265 0.0550244 0.25)
(0.000556238 0.0542301 0.25)
(0.000802174 0.0534731 0.25)
(0.00122862 0.0528012 0.25)
(0.00180878 0.0522564 0.25)
(0.00250621 0.051873 0.25)
(0.00327707 0.051675 0.25)
(0.00407293 0.051675 0.25)
(0.00484379 0.051873 0.25)
(0.00554122 0.0522564 0.25)
(0.00612138 0.0528012 0.25)
(0.00654783 0.0534731 0.25)
(0.0532375 0.000462685 0.0328736)
(0.0564125 0.000462685 0.0328736)
(0.0564125 0.000801393 0.0332123)
(0.0532375 0.000801393 0.0332123)
(0.000462685 0.0564125 0.0328736)
(0.000462685 0.0532375 0.0328736)
(0.000801393 0.0532375 0.0332123)
(0.000801393 0.0564125 0.0332123)
(0.05165 0.00259862 0.0310764)
(0.05165 0.00318264 0.0318375)
(0.05165 0.00354978 0.0327238)
(0.0520754 0.00104375 0.0318672)
(0.0520754 0.00180783 0.0326312)
(0.0575746 0.00104375 0.0318672)
(0.0575746 0.00180783 0.0326312)
(0.05165 0.00095116 0.0301252)
(0.05165 0.0018375 0.0304924)
(-0.0157436 -0.0558224 0.03)
(-0.0164729 -0.0556115 0.03)
(-0.017923 -0.0551613 0.03)
(-0.0468952 -0.0226425 0.0284125)
(-0.0481626 -0.0206244 0.0279592)
(-0.0193608 -0.0546732 0.03)
(0.0365221 -0.0365221 0.03)
(0.0390345 -0.0338236 0.03)
(-0.0200748 -0.0544151 0.03)
(-0.0198477 -0.0537995 0.0280672)
(-0.0208521 -0.0532767 0.0279066)
(-0.0229277 -0.052417 0.0279066)
(-0.0240076 -0.0520765 0.0280672)
(0.0247532 -0.0453321 0.03)
(0.0214562 -0.0469825 0.03)
(-0.0249696 -0.0523499 0.03)
(-0.0242823 -0.0526723 0.03)
(-0.0429868 -0.0293936 0.0315875)
(-0.042705 -0.0298015 0.0315875)
(-0.0444756 -0.0276934 0.0320409)
(-0.02834 -0.0506048 0.03)
(-0.0276752 -0.0509714 0.03)
(0.0338236 -0.0390345 0.03)
(-0.0280194 -0.0500323 0.0280672)
(-0.0289297 -0.0493588 0.0279066)
(-0.0308452 -0.048185 0.0279066)
(-0.0318586 -0.0476797 0.0280672)
(-0.0503095 -0.0174123 0.0272504)
(-0.0506319 -0.0164513 0.0272504)
(0.0206244 -0.0481626 0.0279592)
(0.0226425 -0.0468952 0.0284125)
(-0.0328516 -0.0477993 0.03)
(-0.0340915 -0.046923 0.03)
(-0.0322231 -0.0482252 0.03)
(-0.0353082 -0.0460145 0.03)
(-0.0359075 -0.0455484 0.03)
(-0.0508989 -0.0156055 0.0272504)
(-0.0355013 -0.0450331 0.0280672)
(-0.036295 -0.0442255 0.0279066)
(0.0312922 -0.04307 0.0327496)
(0.0322325 -0.0417999 0.0324322)
(0.0309527 -0.041348 0.03)
(-0.0380033 -0.0427665 0.0279066)
(-0.0389251 -0.0421089 0.0280672)
(0.0180498 -0.0483935 0.03)
(0.0145515 -0.0495578 0.03)
(-0.0399246 -0.0420717 0.03)
(-0.0393704 -0.0425907 0.03)
(-0.047435 -0.0241693 0.0327496)
(-0.0470257 -0.0249562 0.0327496)
(0.0279241 -0.0434507 0.03)
(-0.0425907 -0.0393704 0.03)
(-0.0420717 -0.0399246 0.03)
(-0.0421089 -0.0389251 0.0280672)
(-0.0427665 -0.0380033 0.0279066)
(0.0298015 -0.042705 0.0315875)
(0.0293936 -0.0429868 0.0315875)
(-0.0442255 -0.036295 0.0279066)
(-0.0450331 -0.0355013 0.0280672)
(-0.0481626 -0.0206244 0.0320409)
(-0.0468952 -0.0226425 0.0315875)
(-0.0511806 -0.00961182 0.0284125)
(-0.0512698 -0.00912415 0.0284125)
(-0.0510312 -0.0118668 0.0279592)
(-0.046923 -0.0340915 0.03)
(-0.0460145 -0.0353082 0.03)
(-0.0455484 -0.0359075 0.03)
(0.0276934 -0.0444756 0.0320409)
(-0.0477993 -0.0328516 0.03)
(-0.0482252 -0.0322231 0.03)
(-0.0476797 -0.0318586 0.0280672)
(-0.048185 -0.0308452 0.0279066)
(-0.0493588 -0.0289297 0.0279066)
(-0.0500323 -0.0280194 0.0280672)
(-0.0509714 -0.0276752 0.03)
(-0.0506048 -0.02834 0.03)
(0.00961182 -0.0511806 0.0284125)
(0.0118668 -0.0510312 0.0279592)
(-0.0526723 -0.0242823 0.03)
(-0.0523499 -0.0249696 0.03)
(0.010979 -0.0504696 0.03)
(0.00735056 -0.0511243 0.03)
(0.00912415 -0.0512698 0.0284125)
(-0.0520765 -0.0240076 0.0280672)
(-0.052417 -0.0229277 0.0279066)
(-0.0506319 -0.0164513 0.0327496)
(-0.0503095 -0.0174123 0.0327496)
(-0.0532767 -0.0208521 0.0279066)
(-0.0537995 -0.0198477 0.0280672)
(0.00368467 -0.0515184 0.03)
(-0.0551613 -0.017923 0.03)
(-0.0546732 -0.0193608 0.03)
(0.00676514 -0.0523488 0.0275678)
(0.00832818 -0.0525821 0.0272504)
(-0.0544151 -0.0200748 0.03)
(-0.0508989 -0.0156055 0.0327496)
(-0.0556115 -0.0164729 0.03)
(0.0226425 -0.0468952 0.0315875)
(0.0206244 -0.0481626 0.0320409)
(-0.0558224 -0.0157436 0.03)
(-0.0551909 -0.0155654 0.0280672)
(-0.0553584 -0.0144456 0.0279066)
(-0.0548044 -0.00571622 0.0268371)
(-0.0550742 -0.0042685 0.0268522)
(-0.0558828 -0.0122611 0.0279066)
(-0.0562421 -0.0111872 0.0280672)
(-0.0570288 -0.0105697 0.03)
(-0.0568856 -0.0113152 0.03)
(-0.0575038 -0.00757052 0.03)
(-0.057598 -0.00681717 0.03)
(1.46313e-17 -0.05165 0.03)
(-0.0569464 -0.00674005 0.0280672)
(-0.0569366 -0.00560777 0.0279066)
(-0.0511806 -0.00961182 0.0315875)
(-0.0510312 -0.0118668 0.0320409)
(-0.0571129 -0.00336812 0.0279066)
(-0.0572997 -0.00225131 0.0280672)
(-0.0512698 -0.00912415 0.0315875)
(-0.0579801 -0.00151826 0.03)
(-0.0579553 -0.00227707 0.03)
(-0.0579553 0.00227707 0.03)
(-0.0579801 0.00151826 0.03)
(-0.00368467 -0.0515184 0.03)
(-0.0572997 0.00225131 0.0280672)
(-0.0571129 0.00336812 0.0279066)
(-0.0550742 -0.0042685 0.0331478)
(-0.0548044 -0.00571622 0.0331629)
(-0.0569366 0.00560777 0.0279066)
(-0.0569464 0.00674005 0.0280672)
(-0.0550742 0.0042685 0.0268522)
(-0.0548044 0.00571622 0.0268371)
(-0.057598 0.00681717 0.03)
(-0.0575038 0.00757052 0.03)
(-0.0570288 0.0105697 0.03)
(-0.0568856 0.0113152 0.03)
(-0.0511806 0.00961182 0.0284125)
(-0.0510312 0.0118668 0.0279592)
(-0.0512698 0.00912415 0.0284125)
(-0.0562421 0.0111872 0.0280672)
(-0.0558828 0.0122611 0.0279066)
(-0.0553584 0.0144456 0.0279066)
(-0.0551909 0.0155654 0.0280672)
(-0.00735056 -0.0511243 0.03)
(-0.0558224 0.0157436 0.03)
(-0.0556115 0.0164729 0.03)
(0.0118668 -0.0510312 0.0320409)
(0.00961182 -0.0511806 0.0315875)
(-0.0551613 0.017923 0.03)
(-0.0546732 0.0193608 0.03)
(0.00912415 -0.0512698 0.0315875)
(-0.0544151 0.0200748 0.03)
(-0.00832818 -0.0525821 0.0272504)
(-0.00676514 -0.0523488 0.0275678)
(-0.0537995 0.0198477 0.0280672)
(-0.0532767 0.0208521 0.0279066)
(0.00676514 -0.0523488 0.0324322)
(0.00832818 -0.0525821 0.0327496)
(-0.010979 -0.0504696 0.03)
(-0.052417 0.0229277 0.0279066)
(-0.0520765 0.0240076 0.0280672)
(-0.00961182 -0.0511806 0.0284125)
(-0.00912415 -0.0512698 0.0284125)
(-0.0508989 0.0156055 0.0272504)
(-0.0506319 0.0164513 0.0272504)
(-0.0523499 0.0249696 0.03)
(-0.0526723 0.0242823 0.03)
(-0.0548044 0.00571622 0.0331629)
(-0.0550742 0.0042685 0.0331478)
(-0.0509714 0.0276752 0.03)
(-0.0506048 0.02834 0.03)
(-0.0500323 0.0280194 0.0280672)
(-0.0493588 0.0289297 0.0279066)
(-0.048185 0.0308452 0.0279066)
(-0.0476797 0.0318586 0.0280672)
(-0.0118668 -0.0510312 0.0279592)
(-0.0491706 0.0171493 0.0284125)
(-0.0486398 0.0194724 0.0279592)
(-0.0482252 0.0322231 0.03)
(-0.0477993 0.0328516 0.03)
(-0.046923 0.0340915 0.03)
(-0.0460145 0.0353082 0.03)
(-0.0455484 0.0359075 0.03)
(-0.0450331 0.0355013 0.0280672)
(-0.0442255 0.036295 0.0279066)
(-0.0427665 0.0380033 0.0279066)
(-0.0421089 0.0389251 0.0280672)
(-0.0511806 0.00961182 0.0315875)
(-0.0512698 0.00912415 0.0315875)
(-0.0510312 0.0118668 0.0320409)
(-0.0145515 -0.0495578 0.03)
(-0.0180498 -0.0483935 0.03)
(-0.0425907 0.0393704 0.03)
(-0.0420717 0.0399246 0.03)
(-0.0393704 0.0425907 0.03)
(-0.0399246 0.0420717 0.03)
(-0.0389251 0.0421089 0.0280672)
(-0.0380033 0.0427665 0.0279066)
(-0.047435 0.0241693 0.0272504)
(-0.0478865 0.0232618 0.0272504)
(-0.036295 0.0442255 0.0279066)
(-0.0355013 0.0450331 0.0280672)
(-0.0470257 0.0249562 0.0272504)
(-0.0353082 0.0460145 0.03)
(-0.0359075 0.0455484 0.03)
(-0.0340915 0.046923 0.03)
(-0.0194724 -0.0486398 0.0279592)
(-0.0171493 -0.0491706 0.0284125)
(-0.0328516 0.0477993 0.03)
(-0.0322231 0.0482252 0.03)
(-0.0318586 0.0476797 0.0280672)
(-0.0308452 0.048185 0.0279066)
(-0.0289297 0.0493588 0.0279066)
(-0.0280194 0.0500323 0.0280672)
(-0.00832818 -0.0525821 0.0327496)
(-0.00676514 -0.0523488 0.0324322)
(-0.0508989 0.0156055 0.0327496)
(-0.0506319 0.0164513 0.0327496)
(-0.0276752 0.0509714 0.03)
(-0.02834 0.0506048 0.03)
(-0.0214562 -0.0469825 0.03)
(-0.0247532 -0.0453321 0.03)
(-0.0242823 0.0526723 0.03)
(-0.0249696 0.0523499 0.03)
(-0.0240076 0.0520765 0.0280672)
(-0.0229277 0.052417 0.0279066)
(-0.0486398 0.0194724 0.0320409)
(-0.0491706 0.0171493 0.0315875)
(-0.00912415 -0.0512698 0.0315875)
(-0.00961182 -0.0511806 0.0315875)
(-0.0444756 0.0276934 0.0279592)
(-0.0429868 0.0293936 0.0284125)
(-0.0208521 0.0532767 0.0279066)
(-0.0198477 0.0537995 0.0280672)
(-0.042705 0.0298015 0.0284125)
(-0.017923 0.0551613 0.03)
(-0.0193608 0.0546732 0.03)
(-0.0200748 0.0544151 0.03)
(-0.0164729 0.0556115 0.03)
(-0.0118668 -0.0510312 0.0320409)
(-0.0157436 0.0558224 0.03)
(-0.0155654 0.0551909 0.0280672)
(-0.0144456 0.0553584 0.0279066)
(-0.0122611 0.0558828 0.0279066)
(-0.0111872 0.0562421 0.0280672)
(-0.0105697 0.0570288 0.03)
(-0.0113152 0.0568856 0.03)
(-0.0478865 0.0232618 0.0327496)
(-0.047435 0.0241693 0.0327496)
(-0.0293936 -0.0429868 0.0284125)
(-0.0276934 -0.0444756 0.0279592)
(-0.0279241 -0.0434507 0.03)
(-0.0309527 -0.041348 0.03)
(-0.0298015 -0.042705 0.0284125)
(-0.0470257 0.0249562 0.0327496)
(-0.0427946 0.0347106 0.0268371)
(-0.0419617 0.0359251 0.0268522)
(-0.0338236 -0.0390345 0.03)
(-0.0322325 -0.0417999 0.0275678)
(-0.0312922 -0.04307 0.0272504)
(-0.0171493 -0.0491706 0.0315875)
(-0.0194724 -0.0486398 0.0320409)
(-0.00150293 0.0579805 0.03)
(-0.00100202 0.0579913 0.03)
(-0.0429868 0.0293936 0.0315875)
(-0.0444756 0.0276934 0.0320409)
(-0.042705 0.0298015 0.0315875)
(-0.0365221 -0.0365221 0.03)
(-0.0419617 0.0359251 0.0331478)
(-0.0427946 0.0347106 0.0331629)
(-0.0359251 0.0419617 0.0268522)
(-0.0347106 0.0427946 0.0268371)
(-0.0390345 -0.0338236 0.03)
(-0.0298015 0.042705 0.0284125)
(-0.0293936 0.0429868 0.0284125)
(-0.0276934 0.0444756 0.0279592)
(-0.041348 -0.0309527 0.03)
(-0.0276934 -0.0444756 0.0320409)
(-0.0293936 -0.0429868 0.0315875)
(-0.0298015 -0.042705 0.0315875)
(-0.04307 -0.0312922 0.0272504)
(-0.0417999 -0.0322325 0.0275678)
(-0.0249562 0.0470257 0.0272504)
(-0.0241693 0.047435 0.0272504)
(-0.0312922 -0.04307 0.0327496)
(-0.0322325 -0.0417999 0.0324322)
(-0.0434507 -0.0279241 0.03)
(-0.0347106 0.0427946 0.0331629)
(-0.0359251 0.0419617 0.0331478)
(-0.0429868 -0.0293936 0.0284125)
(-0.042705 -0.0298015 0.0284125)
(-0.0226425 0.0468952 0.0284125)
(-0.0206244 0.0481626 0.0279592)
(-0.0444756 -0.0276934 0.0279592)
(-0.0293936 0.0429868 0.0315875)
(-0.0298015 0.042705 0.0315875)
(-0.0276934 0.0444756 0.0320409)
(-0.0174123 0.0503095 0.0272504)
(-0.0164513 0.0506319 0.0272504)
(-0.0453321 -0.0247532 0.03)
(-0.0469825 -0.0214562 0.03)
(-0.0156055 0.0508989 0.0272504)
(-0.0249562 0.0470257 0.0327496)
(-0.0241693 0.047435 0.0327496)
(-0.04307 -0.0312922 0.0327496)
(-0.0417999 -0.0322325 0.0324322)
(-0.0206244 0.0481626 0.0320409)
(-0.0226425 0.0468952 0.0315875)
(-0.0118668 0.0510312 0.0279592)
(-0.00961182 0.0511806 0.0284125)
(-0.00912415 0.0512698 0.0284125)
(-0.0483935 -0.0180498 0.03)
(-0.0495578 -0.0145515 0.03)
(-0.00710099 0.0542701 0.0268263)
(-0.00857652 0.05415 0.026825)
(-0.00676514 0.0523488 0.0275678)
(-0.00599366 0.0522372 0.0277549)
(-0.00636308 0.0543151 0.026828)
(-0.0164513 0.0506319 0.0327496)
(-0.0174123 0.0503095 0.0327496)
(-0.0156055 0.0508989 0.0327496)
(-0.0504696 -0.010979 0.03)
(-0.0511243 -0.00735056 0.03)
(-0.0515184 -0.00368467 0.03)
(-0.0523488 -0.00676514 0.0275678)
(-0.0525821 -0.00832818 0.0272504)
(-0.00961182 0.0511806 0.0315875)
(-0.0118668 0.0510312 0.0320409)
(-0.00912415 0.0512698 0.0315875)
(-0.00857652 0.05415 0.033175)
(-0.00710099 0.0542701 0.0331737)
(-0.00636308 0.0543151 0.033172)
(-0.00599366 0.0522372 0.0322451)
(-0.00676514 0.0523488 0.0324322)
(-0.05165 -5.21997e-17 0.03)
(-0.0515184 0.00368467 0.03)
(0.0542876 -0.00635986 0.0268293)
(0.0542518 -0.0070986 0.0268269)
(-0.0511243 0.00735056 0.03)
(-0.0525821 0.00832818 0.0272504)
(-0.0523488 0.00676514 0.0275678)
(-0.0523488 -0.00676514 0.0324322)
(-0.0525821 -0.00832818 0.0327496)
(-0.0504696 0.010979 0.03)
(0.0542518 -0.0070986 0.0331731)
(0.0542876 -0.00635986 0.0331707)
(0.0558828 -0.0122611 0.0279066)
(0.0562421 -0.0111872 0.0280672)
(0.0551909 -0.0155654 0.0280672)
(0.0553584 -0.0144456 0.0279066)
(-0.0495578 0.0145515 0.03)
(-0.0483935 0.0180498 0.03)
(0.0532767 -0.0208521 0.0279066)
(0.0537995 -0.0198477 0.0280672)
(0.0520765 -0.0240076 0.0280672)
(0.052417 -0.0229277 0.0279066)
(-0.0525821 0.00832818 0.0327496)
(-0.0523488 0.00676514 0.0324322)
(0.0493588 -0.0289297 0.0279066)
(0.0500323 -0.0280194 0.0280672)
(-0.0469825 0.0214562 0.03)
(-0.0453321 0.0247532 0.03)
(0.0476797 -0.0318586 0.0280672)
(0.048185 -0.0308452 0.0279066)
(0.0419617 -0.0359251 0.0268522)
(0.0427946 -0.0347106 0.0268371)
(0.0433964 -0.037064 0.0277549)
(0.0442255 -0.036295 0.0279066)
(0.0450331 -0.0355013 0.0280672)
(0.0427665 -0.0380033 0.0279066)
(0.0421089 -0.0389251 0.0280672)
(0.0433964 -0.037064 0.0322451)
(0.0442255 -0.036295 0.0320934)
(0.0427665 -0.0380033 0.0320934)
(-0.0434507 0.0279241 0.03)
(-0.041348 0.0309527 0.03)
(0.0347106 -0.0427946 0.0268371)
(0.0359251 -0.0419617 0.0268522)
(0.0427946 -0.0347106 0.0331629)
(0.0419617 -0.0359251 0.0331478)
(0.0380033 -0.0427665 0.0279066)
(0.0389251 -0.0421089 0.0280672)
(0.037064 -0.0433964 0.0277549)
(-0.0390345 0.0338236 0.03)
(0.036295 -0.0442255 0.0279066)
(-0.0417999 0.0322325 0.0275678)
(-0.04307 0.0312922 0.0272504)
(0.0355013 -0.0450331 0.0280672)
(0.0380033 -0.0427665 0.0320934)
(0.037064 -0.0433964 0.0322451)
(0.036295 -0.0442255 0.0320934)
(-0.0365221 0.0365221 0.03)
(0.0308452 -0.048185 0.0279066)
(0.0318586 -0.0476797 0.0280672)
(0.0359251 -0.0419617 0.0331478)
(0.0347106 -0.0427946 0.0331629)
(0.0280194 -0.0500323 0.0280672)
(0.0289297 -0.0493588 0.0279066)
(-0.0338236 0.0390345 0.03)
(0.0229277 -0.052417 0.0279066)
(0.0240076 -0.0520765 0.0280672)
(-0.0309527 0.041348 0.03)
(0.0198477 -0.0537995 0.0280672)
(0.0208521 -0.0532767 0.0279066)
(-0.0322325 0.0417999 0.0275678)
(-0.0312922 0.04307 0.0272504)
(-0.0417999 0.0322325 0.0324322)
(-0.04307 0.0312922 0.0327496)
(-0.0279241 0.0434507 0.03)
(0.0144456 -0.0553584 0.0279066)
(0.0155654 -0.0551909 0.0280672)
(0.0111872 -0.0562421 0.0280672)
(0.0122611 -0.0558828 0.0279066)
(0.0042685 -0.0550742 0.0268522)
(0.00571622 -0.0548044 0.0268371)
(0.00447767 -0.0568941 0.0277549)
(0.00560777 -0.0569366 0.0279066)
(0.00674005 -0.0569464 0.0280672)
(0.00336812 -0.0571129 0.0279066)
(-0.0247532 0.0453321 0.03)
(-0.0214562 0.0469825 0.03)
(0.00225131 -0.0572997 0.0280672)
(0.00560777 -0.0569366 0.0320934)
(0.00447767 -0.0568941 0.0322451)
(0.00336812 -0.0571129 0.0320934)
(-0.00571622 -0.0548044 0.0268371)
(-0.0042685 -0.0550742 0.0268522)
(0.00571622 -0.0548044 0.0331629)
(0.0042685 -0.0550742 0.0331478)
(-0.00336812 -0.0571129 0.0279066)
(-0.00225131 -0.0572997 0.0280672)
(-0.00447767 -0.0568941 0.0277549)
(-0.00560777 -0.0569366 0.0279066)
(-0.00674005 -0.0569464 0.0280672)
(-0.00336812 -0.0571129 0.0320934)
(-0.00447767 -0.0568941 0.0322451)
(-0.0312922 0.04307 0.0327496)
(-0.0322325 0.0417999 0.0324322)
(-0.00560777 -0.0569366 0.0320934)
(-0.0180498 0.0483935 0.03)
(-0.0145515 0.0495578 0.03)
(-0.0122611 -0.0558828 0.0279066)
(-0.0111872 -0.0562421 0.0280672)
(-0.0042685 -0.0550742 0.0331478)
(-0.00571622 -0.0548044 0.0331629)
(-0.0155654 -0.0551909 0.0280672)
(-0.0144456 -0.0553584 0.0279066)
(-0.010979 0.0504696 0.03)
(-0.00735056 0.0511243 0.03)
(-0.00368467 0.0515184 0.03)
(-1.14686e-17 0.05165 0.03)
(-0.0359251 -0.0419617 0.0268522)
(-0.0347106 -0.0427946 0.0268371)
(-0.037064 -0.0433964 0.0277549)
(-0.037064 -0.0433964 0.0322451)
(-0.036295 -0.0442255 0.0320934)
(-0.0380033 -0.0427665 0.0320934)
(-0.0427946 -0.0347106 0.0268371)
(-0.0419617 -0.0359251 0.0268522)
(-0.0347106 -0.0427946 0.0331629)
(-0.0359251 -0.0419617 0.0331478)
(-0.0433964 -0.037064 0.0277549)
(-0.0433964 -0.037064 0.0322451)
(-0.0427665 -0.0380033 0.0320934)
(-0.0442255 -0.036295 0.0320934)
(0.0522372 -0.00599366 0.0277549)
(0.0523488 -0.00676514 0.0275678)
(0.05415 -0.00857652 0.026825)
(0.0512698 -0.00912415 0.0284125)
(0.0511806 -0.00961182 0.0284125)
(0.0510312 -0.0118668 0.0279592)
(-0.0419617 -0.0359251 0.0331478)
(-0.0427946 -0.0347106 0.0331629)
(0.0508989 -0.0156055 0.0272504)
(0.0506319 -0.0164513 0.0272504)
(0.0523488 -0.00676514 0.0324322)
(0.0522372 -0.00599366 0.0322451)
(0.05415 -0.00857652 0.033175)
(0.0491706 -0.0171493 0.0284125)
(0.0486398 -0.0194724 0.0279592)
(0.0510312 -0.0118668 0.0320409)
(0.0511806 -0.00961182 0.0315875)
(0.0512698 -0.00912415 0.0315875)
(0.0478865 -0.0232618 0.0272504)
(0.047435 -0.0241693 0.0272504)
(0.0470257 -0.0249562 0.0272504)
(-0.0568941 -0.00447767 0.0277549)
(0.0508989 -0.0156055 0.0327496)
(0.0506319 -0.0164513 0.0327496)
(-0.0568941 -0.00447767 0.0322451)
(-0.0569366 -0.00560777 0.0320934)
(-0.0571129 -0.00336812 0.0320934)
(0.0486398 -0.0194724 0.0320409)
(0.0491706 -0.0171493 0.0315875)
(-0.0568941 0.00447767 0.0277549)
(0.0444756 -0.0276934 0.0279592)
(0.0429868 -0.0293936 0.0284125)
(0.042705 -0.0298015 0.0284125)
(-0.0568941 0.00447767 0.0322451)
(-0.0571129 0.00336812 0.0320934)
(-0.0569366 0.00560777 0.0320934)
(0.047435 -0.0241693 0.0327496)
(0.0478865 -0.0232618 0.0327496)
(0.0470257 -0.0249562 0.0327496)
(0.0429868 -0.0293936 0.0315875)
(0.0444756 -0.0276934 0.0320409)
(0.042705 -0.0298015 0.0315875)
(0.0298015 -0.042705 0.0284125)
(0.0293936 -0.0429868 0.0284125)
(0.0276934 -0.0444756 0.0279592)
(-0.0433964 0.037064 0.0277549)
(0.0249562 -0.0470257 0.0272504)
(0.0241693 -0.047435 0.0272504)
(-0.0433964 0.037064 0.0322451)
(-0.0442255 0.036295 0.0320934)
(-0.0427665 0.0380033 0.0320934)
(-0.037064 0.0433964 0.0277549)
(-0.0380033 0.0427665 0.0320934)
(-0.037064 0.0433964 0.0322451)
(-0.036295 0.0442255 0.0320934)
(0.0164513 -0.0506319 0.0272504)
(0.0174123 -0.0503095 0.0272504)
(0.0156055 -0.0508989 0.0272504)
(0.0241693 -0.047435 0.0327496)
(0.0249562 -0.0470257 0.0327496)
(0.0164513 -0.0506319 0.0327496)
(0.0174123 -0.0503095 0.0327496)
(0.0156055 -0.0508989 0.0327496)
(0.05165 0 0.03)
(0.0515184 -0.00368467 0.03)
(0.0511243 -0.00735056 0.03)
(0.0504696 -0.010979 0.03)
(-0.0164513 -0.0506319 0.0272504)
(-0.0156055 -0.0508989 0.0272504)
(0.0495578 -0.0145515 0.03)
(0.0483935 -0.0180498 0.03)
(0.0568856 -0.0113152 0.03)
(0.0570288 -0.0105697 0.03)
(0.0558224 -0.0157436 0.03)
(0.0556115 -0.0164729 0.03)
(0.0551613 -0.017923 0.03)
(-0.0241693 -0.047435 0.0272504)
(-0.0232618 -0.0478865 0.0272504)
(0.0546732 -0.0193608 0.03)
(0.0544151 -0.0200748 0.03)
(-0.0249562 -0.0470257 0.0272504)
(0.0469825 -0.0214562 0.03)
(0.0453321 -0.0247532 0.03)
(0.0526723 -0.0242823 0.03)
(0.0523499 -0.0249696 0.03)
(0.0509714 -0.0276752 0.03)
(0.0506048 -0.02834 0.03)
(-0.0164513 -0.0506319 0.0327496)
(-0.0156055 -0.0508989 0.0327496)
(0.0482252 -0.0322231 0.03)
(0.0477993 -0.0328516 0.03)
(0.046923 -0.0340915 0.03)
(0.0460145 -0.0353082 0.03)
(0.0455484 -0.0359075 0.03)
(0.0420717 -0.0399246 0.03)
(0.0425907 -0.0393704 0.03)
(0.0434507 -0.0279241 0.03)
(0.041348 -0.0309527 0.03)
(0.0393704 -0.0425907 0.03)
(0.0399246 -0.0420717 0.03)
(0.0417999 -0.0322325 0.0275678)
(0.04307 -0.0312922 0.0272504)
(-0.0232618 -0.0478865 0.0327496)
(-0.0241693 -0.047435 0.0327496)
(0.0353082 -0.0460145 0.03)
(0.0340915 -0.046923 0.03)
(0.0359075 -0.0455484 0.03)
(0.0328516 -0.0477993 0.03)
(0.0322231 -0.0482252 0.03)
(-0.0249562 -0.0470257 0.0327496)
(0.0276752 -0.0509714 0.03)
(0.02834 -0.0506048 0.03)
(0.0242823 -0.0526723 0.03)
(0.0249696 -0.0523499 0.03)
(0.0193608 -0.0546732 0.03)
(0.017923 -0.0551613 0.03)
(0.0200748 -0.0544151 0.03)
(0.0164729 -0.0556115 0.03)
(0.0157436 -0.0558224 0.03)
(0.0113152 -0.0568856 0.03)
(0.0105697 -0.0570288 0.03)
(0.00681717 -0.057598 0.03)
(0.00757052 -0.0575038 0.03)
(0.00151826 -0.0579801 0.03)
(0.00227707 -0.0579553 0.03)
(0.0322325 -0.0417999 0.0275678)
(0.0312922 -0.04307 0.0272504)
(0.04307 -0.0312922 0.0327496)
(0.0417999 -0.0322325 0.0324322)
(-0.00227707 -0.0579553 0.03)
(-0.00151826 -0.0579801 0.03)
(-0.00681717 -0.057598 0.03)
(-0.00757052 -0.0575038 0.03)
(-0.0105697 -0.0570288 0.03)
(-0.0113152 -0.0568856 0.03)
(-0.047435 -0.0241693 0.0272504)
(-0.0470257 -0.0249562 0.0272504)
(0.00259862 0.058 0.0310764)
(0.00318264 0.058 0.0318375)
(0.00354978 0.058 0.0327238)
(0.00104375 0.0575746 0.0318672)
(0.00180783 0.0575746 0.0326312)
(0.00104375 0.0520754 0.0318672)
(0.00180783 0.0520754 0.0326312)
(0.00095116 0.058 0.0301252)
(0.0018375 0.058 0.0304924)
)

// edges

541
(
(0 152)
(0 153)
(154 1)
(155 1)
(2 156)
(2 157)
(158 3)
(3 159)
(160 161)
(161 162)
(163 164)
(165 166)
(167 168)
(168 160)
(169 170)
(171 170)
(172 173)
(174 171)
(175 176)
(177 174)
(178 179)
(180 181)
(182 183)
(184 185)
(186 187)
(188 186)
(189 190)
(191 175)
(192 193)
(194 195)
(196 197)
(198 199)
(200 201)
(200 202)
(201 203)
(204 203)
(197 205)
(206 207)
(208 209)
(210 191)
(211 212)
(213 214)
(215 216)
(217 218)
(219 210)
(220 221)
(222 223)
(224 225)
(226 227)
(228 229)
(230 231)
(232 230)
(233 234)
(235 234)
(225 236)
(237 233)
(237 238)
(239 240)
(241 242)
(243 244)
(245 246)
(247 248)
(249 250)
(251 245)
(252 253)
(254 255)
(256 257)
(250 258)
(259 260)
(261 262)
(263 260)
(264 254)
(265 259)
(266 267)
(268 265)
(269 270)
(271 272)
(273 274)
(275 276)
(277 278)
(258 279)
(280 281)
(282 283)
(284 285)
(286 282)
(287 288)
(289 290)
(279 291)
(292 293)
(294 295)
(296 297)
(298 299)
(300 301)
(302 303)
(304 305)
(306 304)
(307 308)
(309 310)
(291 311)
(312 313)
(314 315)
(316 313)
(317 316)
(315 318)
(317 319)
(320 321)
(322 323)
(324 325)
(311 326)
(327 328)
(329 330)
(331 332)
(333 334)
(335 336)
(337 338)
(339 340)
(341 342)
(343 329)
(344 345)
(346 347)
(348 347)
(349 348)
(350 349)
(351 352)
(353 354)
(355 356)
(357 355)
(358 359)
(360 361)
(362 363)
(364 365)
(366 367)
(368 369)
(370 366)
(371 372)
(373 371)
(374 375)
(376 373)
(377 376)
(378 379)
(380 381)
(382 383)
(384 385)
(386 387)
(388 389)
(390 391)
(392 393)
(394 395)
(396 397)
(398 399)
(400 401)
(399 402)
(403 404)
(404 405)
(406 403)
(397 407)
(408 406)
(409 410)
(411 412)
(413 414)
(415 416)
(417 418)
(419 420)
(421 417)
(422 416)
(423 424)
(420 425)
(426 427)
(428 429)
(430 431)
(432 433)
(434 432)
(425 435)
(436 437)
(438 439)
(435 440)
(441 442)
(442 443)
(440 444)
(445 446)
(446 447)
(448 449)
(450 451)
(452 453)
(444 454)
(455 456)
(457 458)
(459 460)
(461 457)
(462 463)
(464 462)
(465 466)
(467 468)
(466 469)
(470 471)
(472 473)
(474 475)
(476 477)
(477 478)
(479 480)
(481 482)
(483 484)
(485 481)
(486 487)
(486 488)
(489 490)
(490 491)
(492 493)
(494 495)
(496 494)
(497 498)
(498 499)
(500 501)
(491 502)
(502 503)
(504 505)
(503 506)
(507 508)
(509 510)
(506 511)
(512 513)
(514 515)
(516 517)
(518 519)
(520 521)
(522 523)
(524 525)
(526 527)
(528 529)
(530 531)
(532 533)
(534 535)
(535 536)
(537 534)
(538 537)
(539 540)
(541 539)
(542 543)
(544 545)
(546 547)
(548 549)
(548 550)
(543 551)
(552 550)
(553 554)
(555 552)
(556 557)
(557 558)
(551 559)
(560 561)
(562 563)
(564 565)
(559 566)
(567 568)
(566 569)
(570 571)
(572 573)
(574 575)
(569 576)
(577 578)
(579 580)
(581 582)
(583 584)
(584 585)
(586 583)
(587 588)
(589 586)
(590 591)
(591 592)
(593 594)
(595 596)
(597 598)
(597 599)
(600 599)
(601 600)
(602 603)
(604 605)
(603 606)
(607 608)
(609 610)
(611 612)
(613 614)
(615 616)
(616 617)
(617 618)
(619 620)
(207 621)
(211 621)
(622 623)
(624 622)
(625 626)
(627 628)
(629 223)
(226 629)
(630 631)
(632 630)
(633 634)
(505 635)
(636 637)
(637 638)
(639 640)
(641 642)
(643 644)
(645 512)
(646 647)
(648 649)
(649 650)
(651 652)
(653 652)
(654 281)
(284 654)
(655 656)
(657 658)
(659 657)
(660 661)
(293 662)
(663 664)
(664 665)
(296 662)
(666 667)
(668 666)
(669 670)
(671 669)
(672 673)
(674 672)
(675 676)
(676 677)
(678 352)
(353 678)
(679 680)
(681 682)
(681 683)
(684 365)
(684 368)
(685 686)
(687 686)
(688 689)
(688 690)
(691 692)
(693 694)
(695 693)
(696 697)
(697 698)
(698 699)
(700 701)
(702 703)
(704 705)
(706 707)
(707 708)
(709 710)
(708 711)
(712 711)
(713 709)
(714 715)
(716 717)
(718 719)
(720 721)
(722 723)
(723 724)
(724 725)
(726 725)
(727 728)
(729 730)
(731 732)
(730 176)
(733 734)
(735 736)
(737 738)
(739 737)
(738 740)
(740 741)
(736 742)
(743 744)
(745 746)
(747 748)
(749 747)
(748 750)
(751 750)
(752 753)
(754 755)
(756 757)
(758 759)
(760 761)
(762 763)
(764 765)
(766 767)
(768 769)
(770 771)
(771 772)
(773 774)
(775 776)
(777 778)
(778 770)
(4 5)
(6 4)
(7 6)
(8 9)
(10 7)
(11 8)
(12 10)
(9 12)
(13 11)
(14 13)
(15 14)
(16 15)
(17 16)
(18 17)
(19 18)
(20 19)
(21 20)
(22 21)
(23 22)
(24 23)
(25 24)
(26 25)
(27 26)
(28 27)
(29 28)
(30 29)
(31 30)
(32 31)
(33 32)
(34 33)
(35 34)
(36 35)
(37 36)
(38 37)
(39 38)
(40 39)
(41 40)
(42 41)
(43 42)
(44 43)
(45 44)
(46 45)
(47 46)
(48 47)
(49 48)
(50 49)
(51 50)
(52 51)
(53 52)
(54 53)
(55 54)
(56 55)
(57 56)
(58 57)
(59 58)
(60 59)
(61 60)
(62 61)
(63 62)
(64 63)
(65 64)
(66 65)
(67 66)
(68 67)
(69 68)
(70 69)
(71 70)
(72 71)
(73 72)
(74 73)
(75 74)
(76 75)
(77 76)
(78 77)
(79 78)
(80 79)
(81 80)
(82 81)
(83 82)
(84 83)
(85 84)
(86 85)
(87 86)
(88 87)
(89 88)
(90 89)
(91 90)
(92 91)
(93 92)
(94 93)
(95 94)
(96 95)
(97 96)
(98 97)
(99 98)
(100 99)
(101 100)
(5 101)
(102 103)
(103 104)
(105 106)
(104 107)
(106 108)
(107 109)
(109 110)
(108 111)
(110 105)
(111 112)
(112 113)
(113 114)
(114 115)
(115 116)
(116 117)
(117 118)
(118 119)
(119 120)
(120 121)
(121 122)
(122 123)
(123 124)
(124 125)
(125 126)
(126 102)
(127 128)
(128 129)
(129 130)