/*--------------------------------*- C++ -*----------------------------------*\
| =========                 |                                                 |
| \\      /  F ield         | OpenFOAM: The Open Source CFD Toolbox           |
|  \\    /   O peration     | Version:  4.0                                   |
|   \\  /    A nd           | Web:      www.OpenFOAM.org                      |
|    \\/     M anipulation  |                                                 |
\*---------------------------------------------------------------------------*/
FoamFile
{
    version     2.0;
    format      ascii;
    class       extendedFeatureEdgeMesh;
    location    "constant/extendedFeatureEdgeMesh";
    object      SpargerWalls.extendedFeatureEdgeMesh;
}
// * * * * * * * * * * * * * * * * * * * * * * * * * * * * * * * * * * * * * //

// points

618
(
(0.012478 0.0136675 0.026)
(-0.012929 0.0054034 0.02294)
(-0.0109945 -0.00875418 0.0290671)
(0.0077659 -0.0116754 0.0290639)
(0.0287153 0.0346415 0.25)
(0.0282456 0.0352474 0.25)
(0.0304266 0.0400036 0.25)
(0.0311926 0.0400429 0.25)
(0.0293165 0.034166 0.25)
(0.0296922 0.0397816 0.25)
(0.0300142 0.0338483 0.25)
(0.0307677 0.0337071 0.25)
(0.0290326 0.03939 0.25)
(0.0315331 0.0337507 0.25)
(0.0322658 0.0339765 0.25)
(0.0284863 0.0388518 0.25)
(0.0329231 0.0343714 0.25)
(0.0334666 0.0349125 0.25)
(0.0280849 0.0381984 0.25)
(0.0338646 0.0355682 0.25)
(0.0340937 0.0363004 0.25)
(0.0326276 0.0395843 0.25)
(0.0332163 0.0391207 0.25)
(0.027852 0.0374679 0.25)
(0.0341406 0.037066 0.25)
(0.0340025 0.0378202 0.25)
(0.033688 0.0385187 0.25)
(0.027801 0.036703 0.25)
(0.0319454 0.0398975 0.25)
(0.0279348 0.0359482 0.25)
(-0.0149764 0.00326174 0.0291409)
(-0.0148307 0.00330126 0.0291578)
(-0.0146893 0.00331804 0.0291689)
(-0.015127 0.00319393 0.0291184)
(-0.0130118 0.00717088 0.022825)
(-0.0132268 0.00724318 0.0228328)
(-0.0129009 -0.00829322 0.0291412)
(-0.0128297 -0.00816526 0.0291575)
(-0.0127462 -0.00805534 0.0291684)
(-0.0134314 0.00726531 0.022852)
(-0.0126521 -0.00796128 0.0291741)
(-0.0125477 -0.00788141 0.0291745)
(-0.0124173 -0.00780809 0.0291683)
(0.00797016 -0.0113252 0.0290115)
(0.0081307 -0.0111814 0.0290037)
(0.00829446 -0.0110859 0.0290107)
(0.0085131 -0.011014 0.029035)
(0.00866695 -0.0109948 0.0290583)
(0.00881665 -0.010999 0.0290836)
(0.0089839 -0.0110308 0.0291126)
(0.0123446 0.00965032 0.0290608)
(0.0125081 0.00957143 0.0290373)
(-0.00131962 -0.0146736 0.0291721)
(-0.00135295 -0.0149003 0.0291737)
(-0.00143607 -0.0151117 0.0291598)
(-0.00157802 -0.0153139 0.0291312)
(0.0118616 0.00970515 0.0291352)
(0.0120989 0.00970837 0.0290997)
(0.00787282 -0.0114528 0.0290274)
(0.00962416 -0.0115796 0.0291684)
(0.00968669 -0.0117619 0.0291516)
(0.00971354 -0.0119661 0.0291253)
(0.0114255 0.00953682 0.0291745)
(0.0116373 0.00964826 0.0291616)
(-0.0142114 0.00563381 0.0228539)
(-0.0141083 0.00552505 0.0228384)
(-0.0139944 0.00543571 0.0228287)
(-0.0138599 0.0053596 0.022825)
(0.0110848 0.00913105 0.0291409)
(0.0111517 0.00925348 0.0291574)
(0.0112531 0.00938588 0.0291704)
(-0.00905812 -0.011312 0.0228482)
(-0.00917944 -0.0114072 0.0228336)
(0.010994 0.00868923 0.0290694)
(0.0110008 0.00883325 0.029093)
(0.0110291 0.00897756 0.029117)
(0.0110498 0.00838375 0.029028)
(0.0110094 0.00853746 0.0290467)
(0.0150038 -0.00325158 0.0291329)
(0.0148657 -0.0032939 0.029151)
(-0.00925412 -0.0114834 0.0228275)
(-0.00933161 -0.0115837 0.022825)
(0.00994011 -0.00964295 0.0229868)
(0.00981213 -0.00974116 0.0229945)
(0.00969453 -0.00986761 0.0229923)
(0.0111118 0.0082425 0.0290166)
(0.0127185 0.00940288 0.0290162)
(-0.0142618 0.00324383 0.0291661)
(-0.0141154 0.00316896 0.0291501)
(-0.0139638 0.00305354 0.0291235)
(0.0147314 -0.00331518 0.0291641)
(0.0145573 -0.00331551 0.0291736)
(0.0143692 -0.00328107 0.0291735)
(0.0142083 -0.00321997 0.0291637)
(0.014055 -0.00312841 0.0291447)
(0.00911645 -0.0110783 0.0291345)
(0.00977079 -0.011185 0.022825)
(0.00993795 -0.0113214 0.0228321)
(0.00927156 -0.0111636 0.0291567)
(0.00941829 -0.0112838 0.0291712)
(0.00961432 -0.00998724 0.0229825)
(0.00953318 -0.0114203 0.0291749)
(0.00954729 -0.0101297 0.0229645)
(0.00950387 -0.0102789 0.0229414)
(0.00948457 -0.0104244 0.0229167)
(0.00948649 -0.010568 0.0228923)
(0.00951596 -0.010738 0.0228652)
(0.00957672 -0.0109058 0.022843)
(-0.013633 0.00724572 0.0228787)
(-0.0138057 0.00719446 0.0229055)
(-0.0139599 0.0071171 0.0229305)
(-0.0140995 0.00701351 0.0229522)
(-0.0142226 0.00688283 0.0229681)
(0.0139107 -0.00300066 0.0291167)
(0.0137805 -0.00282604 0.0290805)
(0.013689 -0.00262045 0.0290452)
(0.0154888 -0.00178651 0.0290834)
(0.0155704 -0.00194627 0.0290572)
(0.0151474 -0.00145596 0.0291518)
(0.0152608 -0.00153319 0.0291348)
(0.0153819 -0.00164587 0.0291108)
(0.0101575 -0.00953728 0.02296)
(0.0136465 -0.00240873 0.0290206)
(0.0142633 -0.00139381 0.0291349)
(0.0143979 -0.00134952 0.029153)
(0.014491 -0.00133068 0.0291625)
(0.0146096 -0.00131968 0.0291707)
(0.0148191 -0.00133485 0.0291747)
(0.0150048 -0.0013871 0.0291663)
(0.010863 -0.00955791 0.0228477)
(0.0106535 -0.00949753 0.0228777)
(0.0104029 -0.00948606 0.0229198)
(0.0137036 -0.0019749 0.0290168)
(0.0137942 -0.00178957 0.0290373)
(0.0138876 -0.00166333 0.0290597)
(0.0139925 -0.00155915 0.0290839)
(0.0141252 -0.00146331 0.0291112)
(-0.0155674 0.00269924 0.0290341)
(-0.0154898 0.00285023 0.029049)
(-0.0154046 0.00296658 0.0290663)
(-0.0152808 0.00308891 0.0290909)
(-0.00769318 -0.0127302 0.022825)
(-0.00758703 -0.0125446 0.0228322)
(-0.00752578 -0.0123549 0.0228513)
(0.0113504 -0.00998555 0.0228364)
(0.0112724 -0.00986917 0.0228278)
(0.0111826 -0.00976843 0.022825)
(0.0136518 -0.00218307 0.02901)
(-0.0145516 0.003315 0.0291744)
(-0.0144038 0.00329024 0.0291738)
(0.012992 0.0086553 0.0290763)
(0.0129667 0.00848302 0.0291036)
(0.0129173 0.00833066 0.0291279)
(0.0128519 0.00820069 0.0291471)
(-0.0138346 0.00290843 0.0290907)
(-0.0137393 0.00274832 0.0290584)
(-0.0136877 0.00261625 0.0290362)
(-0.0136509 0.00244904 0.0290149)
(-0.0136429 0.00230139 0.0290037)
(-0.0136738 0.00207021 0.0290015)
(0.012774 0.00808859 0.0291614)
(0.0126541 0.00796298 0.0291725)
(0.0124846 0.00784272 0.0291739)
(0.0123271 0.00777115 0.0291649)
(0.0121572 0.00772737 0.029147)
(-0.0127571 0.00553109 0.0229719)
(-0.0126153 0.00569396 0.0229926)
(0.0119687 0.00771423 0.0291204)
(0.0117544 0.00774298 0.0290851)
(0.0115477 0.00781886 0.0290507)
(0.0113789 0.00792522 0.0290268)
(-0.0137233 0.00192502 0.0290109)
(0.01124 0.00805665 0.0290147)
(-0.0144068 0.0013473 0.0291502)
(-0.0145525 0.0013232 0.0291649)
(-0.0146965 0.0013206 0.0291731)
(-0.0148397 0.00133878 0.0291748)
(-0.0149915 0.00138201 0.0291694)
(-0.015134 0.00144827 0.029157)
(-0.012505 0.00590035 0.0229972)
(-0.0124518 0.00608825 0.0229858)
(-0.0124363 0.00624097 0.0229684)
(-0.0124455 0.00640252 0.0229442)
(-0.0124831 0.00656867 0.0229152)
(-0.0125448 0.00671897 0.0228874)
(-0.0126207 0.00684437 0.0228646)
(-0.0143423 0.00668793 0.0229757)
(-0.0144136 0.00647584 0.0229682)
(-0.0142876 0.0067895 0.0229737)
(-0.014436 0.00627292 0.0229496)
(-0.014421 0.00609276 0.0229264)
(-0.0143778 0.00592922 0.0229015)
(-0.0143088 0.00577716 0.0228768)
(-0.0138685 0.001686 0.0290463)
(-0.0139738 0.00157561 0.0290717)
(-0.01411 0.00147269 0.0291015)
(-0.0142596 0.00139536 0.029129)
(-0.0127077 0.00695053 0.022847)
(-0.0128382 0.00706696 0.0228314)
(-0.0129389 0.00713297 0.0228261)
(-0.00949014 -0.0119824 0.0228517)
(-0.00950324 -0.0121365 0.0228712)
(-0.00949083 -0.0123012 0.0228948)
(-0.00944855 -0.0124702 0.02292)
(-0.00937955 -0.0126257 0.0229419)
(-0.0122788 -0.00775542 0.0291555)
(-0.0156419 0.00231622 0.0290303)
(-0.0156302 0.00247557 0.0290263)
(-0.0134664 0.00526578 0.0228504)
(-0.013295 0.0052753 0.0228741)
(-0.0131107 0.00531973 0.0229056)
(-0.0156329 0.00217926 0.0290391)
(-0.00943563 -0.0117824 0.0228326)
(-0.015257 0.00153027 0.0291404)
(-0.0153804 0.00164425 0.0291173)
(-0.0154869 0.0017834 0.0290914)
(-0.0155492 0.00189737 0.0290728)
(-0.0155989 0.00202728 0.0290549)
(-0.0121282 -0.00772301 0.029136)
(-0.0119634 -0.00771437 0.0291099)
(-0.0128027 -0.0093017 0.0290294)
(-0.0129056 -0.00912417 0.0290355)
(-0.0129596 -0.00897289 0.0290483)
(-0.0129902 -0.00879708 0.0290688)
(-0.0129889 -0.00861633 0.029094)
(-0.0129564 -0.00844333 0.0291196)
(-0.0126898 -0.00943175 0.0290338)
(-0.00907685 -0.0129631 0.0229706)
(-0.0088843 -0.0130685 0.0229636)
(-0.00928551 -0.0127669 0.0229587)
(-0.00918747 -0.0128732 0.0229676)
(-0.0117791 -0.0077372 0.0290773)
(-0.0115791 -0.00780388 0.0290415)
(-0.0114395 -0.00788151 0.0290191)
(-0.011285 -0.00800838 0.0290009)
(-0.0111504 -0.0081764 0.0289972)
(-0.011081 -0.00830518 0.0290044)
(-0.0110346 -0.00843069 0.0290173)
(-0.00867232 -0.0131295 0.0229439)
(-0.00846517 -0.0131432 0.022917)
(-0.00826893 -0.0131161 0.0228883)
(-0.00808275 -0.0130512 0.022861)
(-0.00795789 -0.0129821 0.0228447)
(-0.0123863 -0.00963361 0.0290681)
(-0.0125536 -0.00954248 0.0290466)
(-0.0122017 -0.00969203 0.0290951)
(-0.0110021 -0.00858424 0.0290388)
(-0.0136359 0.00528551 0.0228337)
(-0.0116875 -0.0096659 0.0291616)
(-0.0118737 -0.00970669 0.0291413)
(-0.0120215 -0.00971353 0.0291215)
(-0.00783975 -0.0128921 0.0228323)
(-0.00776225 -0.0128154 0.0228269)
(-0.0111549 -0.00925839 0.0291524)
(-0.0112115 -0.00933698 0.0291622)
(-0.011292 -0.0094264 0.0291707)
(-0.0114688 -0.00956507 0.0291744)
(-0.011019 -0.00893767 0.0290998)
(-0.0110839 -0.00912906 0.0291329)
(-0.00329752 -0.0148493 0.0291567)
(-0.00331654 -0.0147146 0.0291679)
(-0.0030993 -0.0152681 0.0290949)
(-0.00319178 -0.0151308 0.0291192)
(-0.0032576 -0.0149879 0.0291405)
(-0.00298431 -0.0153892 0.0290712)
(0.00965428 -0.0110427 0.0228303)
(-0.00262238 -0.0155954 0.0290314)
(-0.0028367 -0.0154981 0.0290492)
(-0.00331394 -0.0145406 0.0291747)
(-0.0032794 -0.0143634 0.029172)
(-0.00322996 -0.0142297 0.0291627)
(-0.00316049 -0.014102 0.0291472)
(-0.00175384 -0.0154674 0.0290976)
(-0.00294792 -0.0138649 0.0290977)
(-0.00279319 -0.013762 0.0290651)
(-0.00261683 -0.0136878 0.0290342)
(-0.00239648 -0.0136455 0.029008)
(-0.00306824 -0.01398 0.0291255)
(-0.00247557 -0.0156302 0.029028)
(-0.00196003 -0.0155758 0.0290649)
(-0.00217185 -0.0156316 0.0290413)
(-0.00230573 -0.0156424 0.0290322)
(-0.00774294 -0.0114943 0.0229918)
(-0.00784938 -0.0113873 0.0230016)
(-0.00799248 -0.0112842 0.0230025)
(0.010812 -0.0114271 0.0229496)
(0.0109523 -0.0113658 0.0229654)
(0.0110756 -0.0112882 0.0229749)
(0.0111357 -0.0112403 0.0229776)
(0.01119 -0.01119 0.0229784)
(0.0113325 -0.0110102 0.0229707)
(0.011429 -0.0108066 0.0229493)
(-0.00812799 -0.011217 0.0229941)
(0.0114762 -0.010598 0.0229203)
(-0.00828075 -0.011169 0.0229771)
(-0.00843347 -0.0111464 0.0229545)
(-0.00857617 -0.0111466 0.0229303)
(-0.00875152 -0.0111752 0.0228988)
(-0.00891696 -0.0112335 0.02287)
(0.0114772 -0.0103768 0.0228869)
(0.0114286 -0.010158 0.0228559)
(0.00907438 -0.0129265 0.0290329)
(0.00891399 -0.0129734 0.0290488)
(0.00877012 -0.0129921 0.0290672)
(0.00859274 -0.0129863 0.029093)
(-0.00216782 -0.013654 0.028998)
(0.00840504 -0.0129448 0.0291218)
(0.00824709 -0.012878 0.0291448)
(-0.00195048 -0.0137129 0.029007)
(0.00811399 -0.0127937 0.0291613)
(-0.00181323 -0.0137799 0.0290228)
(-0.0016805 -0.013873 0.0290462)
(-0.0015802 -0.0139687 0.0290695)
(-0.00147574 -0.0141052 0.0290997)
(0.0093017 -0.0128027 0.0290228)
(0.00927925 -0.0128185 0.029023)
(0.00946304 -0.0126561 0.0290298)
(-0.0076177 -0.0116794 0.0229644)
(0.0110425 -0.00965414 0.0228301)
(0.0101394 -0.011422 0.0228531)
(0.0103219 -0.0114698 0.0228783)
(0.0104915 -0.0114828 0.0229038)
(0.0106572 -0.0114676 0.0229285)
(-0.0013319 -0.0144832 0.0291583)
(-0.00750327 -0.0121431 0.0228822)
(-0.00753305 -0.0119017 0.0229246)
(0.0152917 -0.00307974 0.0290821)
(0.0151462 -0.00318299 0.0291097)
(-0.0013832 -0.0142903 0.0291334)
(0.0154922 -0.00284646 0.0290401)
(0.01541 -0.00296016 0.0290575)
(0.0156302 -0.00247557 0.0290168)
(0.0155681 -0.00269755 0.029025)
(0.0156254 -0.00213429 0.029034)
(0.015642 -0.00229539 0.0290217)
(0.00800148 -0.0126954 0.0291714)
(0.00790504 -0.0125816 0.029175)
(0.00782824 -0.012458 0.0291718)
(0.00776428 -0.012307 0.0291604)
(0.00772186 -0.0121195 0.0291377)
(0.00771752 -0.0119089 0.0291047)
(0.0129883 0.00881734 0.0290526)
(0.00970051 -0.0121569 0.0290969)
(0.00965203 -0.01234 0.029069)
(0.00955861 -0.0125289 0.0290431)
(0.0128027 0.0093017 0.0290135)
(0.0129147 0.0091034 0.0290215)
(0.012965 0.00895147 0.0290359)
(0.00830744 0.0185273 0.0268769)
(0.00837396 0.0184607 0.0271551)
(0.00845838 0.0183763 0.0274234)
(0.00855996 0.0182747 0.0276796)
(0.0104652 0.0163695 0.022825)
(0.0102577 0.016577 0.0228386)
(0.00867785 0.0181569 0.0279213)
(0.00881103 0.0180237 0.0281467)
(0.0104752 0.0163595 0.022825)
(0.0104719 0.0163629 0.022825)
(0.0104685 0.0163662 0.022825)
(0.00895836 0.0178764 0.0283536)
(0.00911858 0.0177161 0.0285405)
(0.00929032 0.0175444 0.0287056)
(0.0100521 0.0167826 0.0228792)
(0.00984994 0.0169848 0.0229466)
(0.00965307 0.0171816 0.02304)
(0.00946315 0.0173715 0.0231588)
(0.0102677 0.016567 0.0291627)
(0.0104752 0.0163595 0.029175)
(0.00928181 0.0175529 0.0233019)
(0.00911058 0.0177241 0.0234681)
(0.00947212 0.0173626 0.0288475)
(0.00966241 0.0171723 0.0289651)
(0.00985957 0.0169751 0.0290573)
(0.0100619 0.0167728 0.0291234)
(0.00895095 0.0178838 0.0236559)
(0.00880427 0.0180304 0.0238638)
(0.00867181 0.0181629 0.02409)
(0.00855468 0.01828 0.0243325)
(0.00845391 0.0183808 0.0245893)
(0.00837034 0.0184644 0.0248581)
(0.0083047 0.01853 0.0251367)
(0.00825754 0.0185772 0.0254227)
(0.00822926 0.0186054 0.0257137)
(0.00822012 0.0186146 0.0260071)
(0.00823019 0.0186045 0.0263004)
(0.00825938 0.0185753 0.0265912)
(0.00941092 0.0123416 0.022825)
(0.00982533 0.0113406 0.022825)
(0.0092697 0.0134157 0.022825)
(0.00941129 0.0144898 0.022825)
(0.00982605 0.0154906 0.022825)
(0.0104857 0.01635 0.022825)
(0.0106931 0.0161425 0.0228386)
(0.0108988 0.0159368 0.0228792)
(0.0111009 0.0157347 0.0229466)
(0.0112977 0.0155378 0.02304)
(0.0106832 0.0161525 0.0291627)
(0.0104757 0.01636 0.029175)
(0.0104757 0.01636 0.022825)
(0.010479 0.0163567 0.022825)
(0.0104824 0.0163533 0.022825)
(0.0109446 0.0140787 0.0232504)
(0.0109444 0.0127522 0.0232504)
(0.0114876 0.0153478 0.0231588)
(0.0116689 0.0151664 0.0233019)
(0.0118401 0.0149952 0.0234681)
(0.0119997 0.0148355 0.0236559)
(0.0121463 0.0146888 0.0238638)
(0.0122788 0.0145563 0.02409)
(0.0123959 0.0144392 0.0243325)
(0.0124966 0.0143384 0.0245893)
(0.0125802 0.0142548 0.0248581)
(0.0126458 0.0141891 0.0251367)
(0.012693 0.014142 0.0254227)
(0.0127212 0.0141137 0.0257137)
(0.0127304 0.0141046 0.0260071)
(0.0127203 0.0141146 0.0263004)
(0.0126911 0.0141438 0.0265912)
(0.0126431 0.0141919 0.0268769)
(0.0125766 0.0142584 0.0271551)
(0.0124922 0.0143429 0.0274234)
(0.0123906 0.0144445 0.0276796)
(0.0122727 0.0145624 0.0279213)
(0.0121396 0.0146956 0.0281467)
(0.0119923 0.0148429 0.0283536)
(0.0118321 0.0150032 0.0285405)
(0.0116604 0.0151749 0.0287056)
(0.0114786 0.0153568 0.0288475)
(0.0112883 0.0155471 0.0289651)
(0.0110912 0.0157443 0.0290573)
(0.0108889 0.0159467 0.0291234)
(0.0139776 -0.00498307 0.022825)
(0.0144879 -0.0031976 0.022825)
(-0.0110746 0.0110431 0.0229247)
(-0.0105164 0.0104847 0.022825)
(0.00181233 -0.0131533 0.0232504)
(-0.00185227 -0.0131527 0.0232504)
(-0.0115978 0.0115665 0.0232177)
(0.00314388 -0.0145272 0.022825)
(0.00129118 -0.0148099 0.022825)
(0.00771098 -0.00932825 0.0275875)
(0.00486798 -0.0110879 0.0275875)
(0.0147713 -0.00136241 0.022825)
(0.0148235 0.000493806 0.022825)
(0.00533721 -0.0121511 0.0232504)
(0.00666951 -0.0132768 0.022825)
(0.00494623 -0.0140135 0.022825)
(0.0127576 0.00755302 0.022825)
(0.0117128 0.00908822 0.022825)
(0.0146436 0.00234203 0.022825)
(0.0142345 0.00415335 0.022825)
(0.00845325 -0.0102225 0.0232504)
(-0.012053 0.0120218 0.0236855)
(-0.0114503 0.00945952 0.022825)
(-0.0122845 0.00835169 0.022825)
(-0.0124116 0.0123806 0.0242987)
(-0.0126512 0.0126202 0.0250189)
(-0.0127566 0.0127257 0.0258006)
(-0.0127213 0.0126904 0.0265949)
(-0.0144271 0.00357261 0.022825)
(-0.0147647 0.00172839 0.022825)
(-0.0125474 0.0125164 0.0273519)
(-0.0122459 0.0122148 0.0280238)
(0.00771098 -0.00932825 0.0244125)
(0.0099639 -0.00685778 0.0244125)
(-0.0118358 0.0118045 0.0285686)
(-0.0113427 0.0113113 0.028952)
(0.0136025 0.00589945 0.022825)
(-0.0148671 -0.000143661 0.022825)
(-0.0147329 -0.00201371 0.022825)
(-0.0107977 0.0107661 0.02915)
(-0.0102351 0.0102033 0.02915)
(-0.00969006 0.00965808 0.028952)
(-0.00919699 0.00916485 0.0285686)
(-0.00878683 0.00875454 0.0280238)
(0.0120697 -0.000578624 0.0275875)
(0.0114548 -0.00386507 0.0275875)
(-0.00848534 0.00845294 0.0273519)
(-0.00831147 0.00827901 0.0265949)
(-0.0143641 -0.00385193 0.022825)
(-0.0137667 -0.00562904 0.022825)
(0.0109225 -0.00751471 0.0232504)
(0.0125566 -0.00423458 0.0232504)
(-0.00827614 0.00824367 0.0258006)
(-0.00838157 0.00834914 0.0250189)
(0.0132306 -0.000632498 0.0232504)
(-0.00862114 0.00858879 0.0242987)
(-0.0089798 0.00894757 0.0236855)
(-0.0129501 -0.00731671 0.022825)
(-0.0119273 -0.00888803 0.022825)
(0.0128931 0.00301653 0.0232504)
(-0.00995815 0.00992627 0.0229247)
(-0.009435 0.00940293 0.0232177)
(0.0115699 0.00643389 0.0232504)
(-0.0159647 0.00528976 0.0234999)
(-0.0160179 0.00374849 0.0232504)
(-0.0167235 0.00645754 0.0251782)
(-0.0164614 0.00724639 0.0254487)
(-0.0170615 0.00569816 0.0265513)
(-0.0167235 0.00645754 0.0268218)
(-0.0117962 0.00275476 0.0244125)
(-0.0105878 0.00587226 0.0244125)
(-0.0178578 0.00163859 0.0251782)
(-0.0178216 0.00246903 0.0254487)
(-0.0121052 -0.000574405 0.0275875)
(-0.0117962 0.00275476 0.0275875)
(-0.0179751 0.000815686 0.0265513)
(-0.0178578 0.00163859 0.0268218)
(-0.0129274 0.00302103 0.0232504)
(-0.01763 -0.00330681 0.0251782)
(-0.0178225 -0.00249817 0.0254487)
(-0.0175177 -0.00413041 0.0265513)
(-0.01763 -0.00330681 0.0268218)
(-0.0160576 -0.00800109 0.0251782)
(-0.016464 -0.007276 0.0254487)
(-0.0157241 -0.00876251 0.0265513)
(-0.0160576 -0.00800109 0.0268218)
(-0.0132661 -0.000627873 0.0232504)
(-0.0132605 -0.0120858 0.0251782)
(-0.0138498 -0.0114997 0.0254487)
(-0.0127314 -0.0127269 0.0265513)
(-0.0132605 -0.0120858 0.0268218)
(-0.00945232 -0.0152492 0.0251782)
(-0.0101796 -0.0148467 0.0254487)
(-0.0120738 -0.0116901 0.0285205)
(-0.012948 -0.0111984 0.0282463)
(-0.00244692 -0.0146676 0.022825)
(-0.000582365 -0.0148569 0.022825)
(-0.0115673 -0.0120379 0.0286018)
(-0.0105209 -0.0126618 0.0287496)
(-0.0125934 -0.00423019 0.0232504)
(-0.00876799 -0.0157211 0.0265513)
(-0.00945232 -0.0152492 0.0268218)
(-0.00492385 -0.0172497 0.0251782)
(-0.00573351 -0.0170615 0.0254487)
(-0.00849216 -0.0102195 0.0287496)
(-0.00665975 -0.0150534 0.0287496)
(-0.00558932 -0.0157252 0.0286041)
(-0.00502839 -0.0160279 0.0285241)
(-2.08047e-05 -0.0179345 0.0251782)
(-0.000851041 -0.0179751 0.0254487)
(-0.00774959 -0.00932555 0.0275875)
(-0.0100016 -0.00685429 0.0275875)
(0.000809417 -0.0179754 0.0265513)
(-2.08047e-05 -0.0179345 0.0268218)
(-0.0109605 -0.00751089 0.0232504)
(0.00488248 -0.0172514 0.0251782)
(0.00409506 -0.0175177 0.0254487)
(0.00569221 -0.0170635 0.0265513)
(0.00488248 -0.0172514 0.0268218)
(0.00941165 -0.0152525 0.0251782)
(0.00872715 -0.0157241 0.0254487)
(0.0101391 -0.0148502 0.0265513)
(0.00941165 -0.0152525 0.0268218)
(-0.00849216 -0.0102195 0.0232504)
(0.0132209 -0.0120905 0.0251782)
(0.0126916 -0.0127314 0.0254487)
(-0.0049072 -0.0110862 0.0244125)
(-0.00774959 -0.00932555 0.0244125)
(0.0138104 -0.0115045 0.0265513)
(0.0132209 -0.0120905 0.0268218)
(0.0160194 -0.00800669 0.0251782)
(0.0156857 -0.00876799 0.0254487)
(0.0164261 -0.00728174 0.0265513)
(0.0160194 -0.00800669 0.0268218)
(0.0175935 -0.00331296 0.0251782)
(0.0174809 -0.00413652 0.0254487)
(0.0177863 -0.00250439 0.0265513)
(0.0175935 -0.00331296 0.0268218)
(0.017823 0.00163236 0.0251782)
(0.0179401 0.000809417 0.0254487)
(0.0177871 0.00246282 0.0265513)
(0.017823 0.00163236 0.0268218)
(-0.0053768 -0.0121492 0.0232504)
(0.0166904 0.00645171 0.0251782)
(0.0170282 0.00569221 0.0254487)
(0.0164286 0.00724064 0.0265513)
(0.0166904 0.00645171 0.0268218)
(0.00533721 -0.0121511 0.0287496)
(0.0126562 0.0141788 0.0253065)
(0.0125342 0.0143008 0.024767)
(0.0123463 0.0144887 0.0242666)
(0.0120986 0.0147365 0.0238215)
(0.011799 0.0150363 0.0234457)
(0.0114568 0.0153785 0.0231513)
(0.0110832 0.0157524 0.0229475)
(0.0107824 0.0160532 0.0228568)
(0.0108744 0.0159612 0.0291219)
(0.0112601 0.0155753 0.0289695)
(0.0116206 0.0152148 0.0287225)
(0.0119442 0.014891 0.0283889)
(0.0122208 0.0146143 0.0279793)
(0.0124416 0.0143935 0.0275066)
(0.0125994 0.0142356 0.026986)
(0.0126893 0.0141456 0.026434)
(0.0127084 0.0141265 0.0258681)
(0.0101684 0.0166663 0.0228568)
(0.0100764 0.0167583 0.0291219)
(0.00829435 0.0185403 0.0253065)
(0.00824208 0.0185926 0.0258681)
(0.00986763 0.0169671 0.0229475)
(0.00969061 0.0171441 0.0289695)
(0.00933012 0.0175046 0.0287225)
(0.00841636 0.0184183 0.024767)
(0.00949389 0.0173408 0.0231513)
(0.00900641 0.0178283 0.0283889)
(0.00860423 0.0182305 0.0242666)
(0.00872976 0.0181049 0.0279793)
(0.00915171 0.017683 0.0234457)
(0.00850899 0.0183257 0.0275066)
(0.00885197 0.0179827 0.0238215)
(0.00835113 0.0184836 0.026986)
(0.00826121 0.0185735 0.026434)
(0.012067 0.0130528 0.0244125)
(0.0124779 0.0131628 0.026)
(0.012067 0.0130528 0.0275875)
(0.0120671 0.0137777 0.0244125)
(0.0120671 0.0137777 0.0275875)
)

// edges

560
(
(348 349)
(349 350)
(350 351)
(352 353)
(351 354)
(354 355)
(356 357)
(357 358)
(355 359)
(359 360)
(360 361)
(353 362)
(362 363)
(363 364)
(358 352)
(364 365)
(366 367)
(365 368)
(368 369)
(361 370)
(370 371)
(371 372)
(372 373)
(373 366)
(369 374)
(374 375)
(375 376)
(376 377)
(377 378)
(378 379)
(379 380)
(380 381)
(381 382)
(382 383)
(383 384)
(384 385)
(385 348)
(386 387)
(388 386)
(389 388)
(390 389)
(391 392)
(392 393)
(393 394)
(394 395)
(396 397)
(398 399)
(399 400)
(400 391)
(401 402)
(395 403)
(403 404)
(404 405)
(405 406)
(406 407)
(407 408)
(408 409)
(409 410)
(410 411)
(411 412)
(412 413)
(413 414)
(414 415)
(415 416)
(416 417)
(417 418)
(418 419)
(419 420)
(420 421)
(421 422)
(422 423)
(423 424)
(424 425)
(425 426)
(426 427)
(427 428)
(428 429)
(429 430)
(430 396)
(431 432)
(433 434)
(435 436)
(437 433)
(438 439)
(440 441)
(442 443)
(444 435)
(445 446)
(447 448)
(449 450)
(444 451)
(452 437)
(453 454)
(455 452)
(456 455)
(457 456)
(458 457)
(459 460)
(461 458)
(462 461)
(463 464)
(465 462)
(466 465)
(467 447)
(468 469)
(470 466)
(471 470)
(472 471)
(473 472)
(474 473)
(475 476)
(477 474)
(478 477)
(479 480)
(481 482)
(483 478)
(484 483)
(482 485)
(486 484)
(487 486)
(488 489)
(485 490)
(491 492)
(434 491)
(492 487)
(490 493)
(494 495)
(496 497)
(498 499)
(500 501)
(502 503)
(504 505)
(506 507)
(1 508)
(509 510)
(511 512)
(513 514)
(515 516)
(517 508)
(518 519)
(520 521)
(522 523)
(524 525)
(526 527)
(528 529)
(517 530)
(531 532)
(533 534)
(535 2)
(536 537)
(537 538)
(539 540)
(541 542)
(543 544)
(530 545)
(546 547)
(548 549)
(550 551)
(552 553)
(545 554)
(555 556)
(557 558)
(559 560)
(561 562)
(563 564)
(565 566)
(567 568)
(569 570)
(571 572)
(436 573)
(574 575)
(576 577)
(3 578)
(579 580)
(580 581)
(581 582)
(582 583)
(583 584)
(584 585)
(585 586)
(586 398)
(397 587)
(587 588)
(588 589)
(589 590)
(590 591)
(591 592)
(592 593)
(593 594)
(594 595)
(595 579)
(356 596)
(597 367)
(598 599)
(596 600)
(601 597)
(602 601)
(603 598)
(600 604)
(605 602)
(606 603)
(607 605)
(604 608)
(609 607)
(610 606)
(611 609)
(608 610)
(612 611)
(599 612)
(613 614)
(614 615)
(0 616)
(617 0)
(4 5)
(6 7)
(8 4)
(9 6)
(10 8)
(11 10)
(12 9)
(13 11)
(14 13)
(15 12)
(16 14)
(17 16)
(18 15)
(19 17)
(20 19)
(21 22)
(23 18)
(24 20)
(25 24)
(26 25)
(22 26)
(27 23)
(28 21)
(29 27)
(7 28)
(5 29)
(30 31)
(31 32)
(33 30)
(34 35)
(36 37)
(37 38)
(35 39)
(38 40)
(40 41)
(41 42)
(43 44)
(44 45)
(45 46)
(46 47)
(47 48)
(48 49)
(50 51)
(52 53)
(53 54)
(54 55)
(56 57)
(57 50)
(58 43)
(59 60)
(60 61)
(62 63)
(63 56)
(64 65)
(65 66)
(66 67)
(68 69)
(69 70)
(70 62)
(71 72)
(73 74)
(74 75)
(75 68)
(76 77)
(77 73)
(78 79)
(72 80)
(80 81)
(82 83)
(83 84)
(85 76)
(51 86)
(87 88)
(88 89)
(79 90)
(90 91)
(91 92)
(92 93)
(93 94)
(49 95)
(96 97)
(95 98)
(98 99)
(84 100)
(99 101)
(100 102)
(101 59)
(102 103)
(103 104)
(104 105)
(105 106)
(106 107)
(39 108)
(108 109)
(109 110)
(110 111)
(111 112)
(94 113)
(113 114)
(114 115)
(116 117)
(118 119)
(119 120)
(120 116)
(121 82)
(115 122)
(123 124)
(124 125)
(125 126)
(126 127)
(127 128)
(128 118)
(129 130)
(130 131)
(131 121)
(132 133)
(133 134)
(134 135)
(135 136)
(136 123)
(137 138)
(138 139)
(139 140)
(140 33)
(141 142)
(142 143)
(144 145)
(145 146)
(122 147)
(147 132)
(32 148)
(148 149)
(149 87)
(150 151)
(151 152)
(152 153)
(89 154)
(154 155)
(155 156)
(156 157)
(157 158)
(158 159)
(153 160)
(160 161)
(161 162)
(162 163)
(163 164)
(165 166)
(164 167)
(167 168)
(168 169)
(169 170)
(159 171)
(170 172)
(172 85)
(173 174)
(174 175)
(175 176)
(176 177)
(177 178)
(166 179)
(179 180)
(180 181)
(181 182)
(182 183)
(183 184)
(184 185)
(186 187)
(112 188)
(188 186)
(187 189)
(189 190)
(190 191)
(191 192)
(192 64)
(193 194)
(194 195)
(195 196)
(196 173)
(185 197)
(1 165)
(197 198)
(171 193)
(198 199)
(199 34)
(200 201)
(201 202)
(202 203)
(203 204)
(42 205)
(206 207)
(207 137)
(208 209)
(209 210)
(210 1)
(211 206)
(81 212)
(178 213)
(213 214)
(214 215)
(215 216)
(216 217)
(217 211)
(212 200)
(205 218)
(218 219)
(220 221)
(221 222)
(222 223)
(223 224)
(224 225)
(226 220)
(225 36)
(227 228)
(204 229)
(229 230)
(230 227)
(219 231)
(231 232)
(232 233)
(233 234)
(234 235)
(235 236)
(236 237)
(228 238)
(238 239)
(239 240)
(240 241)
(241 242)
(243 244)
(244 226)
(245 243)
(237 246)
(67 247)
(247 208)
(248 249)
(249 250)
(250 245)
(242 251)
(251 252)
(253 254)
(252 141)
(254 255)
(255 256)
(256 248)
(2 257)
(257 258)
(258 253)
(259 260)
(261 262)
(262 263)
(263 259)
(246 2)
(264 261)
(107 265)
(266 267)
(267 264)
(260 268)
(268 269)
(269 270)
(270 271)
(265 96)
(55 272)
(273 274)
(274 275)
(275 276)
(271 277)
(277 273)
(278 266)
(272 279)
(279 280)
(280 281)
(281 278)
(282 283)
(283 284)
(285 286)
(286 287)
(287 288)
(288 289)
(289 290)
(290 291)
(284 292)
(291 293)
(292 294)
(294 295)
(295 296)
(296 297)
(297 298)
(298 71)
(293 299)
(299 300)
(301 302)
(302 303)
(303 304)
(276 305)
(304 306)
(306 307)
(305 308)
(307 309)
(308 310)
(310 311)
(311 312)
(312 313)
(314 315)
(315 301)
(316 314)
(317 282)
(146 318)
(318 129)
(97 319)
(319 320)
(320 321)
(321 322)
(322 285)
(323 52)
(143 324)
(324 325)
(325 317)
(326 327)
(327 78)
(313 328)
(328 323)
(329 330)
(330 326)
(331 332)
(332 329)
(117 333)
(333 334)
(334 331)
(300 144)
(309 335)
(335 336)
(336 337)
(337 338)
(338 339)
(339 340)
(340 3)
(341 150)
(61 342)
(342 343)
(343 344)
(344 316)
(345 346)
(346 347)
(347 341)
(86 345)
(3 58)
)

// concaveStart mixedStart nonFeatureStart
0 1 4
// internalStart flatStart openStart multipleStart
173 213 213 560
// normals

764
(
(-0.790335 -0.612675 7.25806e-05)
(-0.0512355 0.998687 3.05786e-05)
(-0.620342 -0.784332 7.59889e-05)
(-0.289358 0.957221 3.61277e-05)
(-0.414412 -0.910089 7.96947e-05)
(-0.184186 -0.982891 8.27195e-05)
(-0.510502 0.859877 4.16694e-05)
(0.0568725 -0.998381 8.59223e-05)
(0.294504 -0.95565 8.91346e-05)
(-0.701807 0.712367 4.71044e-05)
(0.514995 -0.857193 9.23014e-05)
(0.705541 -0.708669 9.52784e-05)
(-0.852061 0.523442 5.20752e-05)
(0.854848 -0.518879 9.84623e-05)
(0.954372 -0.298619 0.000101786)
(0.618688 0.785636 0)
(-0.952749 0.303758 5.6328e-05)
(0.998129 -0.0611461 0.000104552)
(0.983646 0.180114 0.000107203)
(0.911836 0.410555 0.000109039)
(0.787143 0.61677 6.80551e-05)
(-0.997784 0.0665292 6.09124e-05)
(0.417232 0.9088 1.17698e-05)
(-0.984649 -0.174545 6.50869e-05)
(0.189638 0.981854 2.47818e-05)
(-0.914134 -0.405412 6.8775e-05)
(-0.141727 0.101428 0.984696)
(-0.0918891 0.120488 0.988453)
(-0.186219 0.0888982 0.978478)
(-0.0300312 0.0184972 -0.999378)
(-0.150501 -0.0420757 0.987714)
(-0.118174 -0.00869654 0.992955)
(-0.0861247 0.0662173 -0.994081)
(-0.0869095 0.0266009 0.995861)
(-0.0545785 0.0663694 0.996301)
(-0.0177389 0.115515 0.993147)
(-0.246682 0.324916 0.913005)
(-0.225833 0.319803 0.920177)
(-0.207371 0.317916 0.925163)
(-0.180883 0.321476 0.929481)
(-0.148178 0.33144 0.931768)
(-0.093489 0.35616 0.929736)
(0.266876 0.278262 0.922685)
(0.0946594 -0.00689111 0.995486)
(0.056749 -0.0877097 0.994528)
(0.0293244 -0.160139 0.986659)
(0.143884 0.161067 0.976399)
(0.196291 0.185627 0.962815)
(-0.48754 0.464085 0.739547)
(0.158344 -0.0366235 0.986705)
(0.164128 -0.104752 0.980861)
(0.0392037 0.0410506 0.998388)
(0.0952365 0.0847971 0.991836)
(-0.121123 0.0265875 -0.992281)
(-0.0705386 0.0183626 -0.99734)
(-0.0233086 0.00739828 -0.999701)
(-0.0913555 -0.0838055 0.992286)
(-0.0597625 -0.0521039 0.996852)
(-0.0214689 -0.00263341 0.999766)
(0.0597971 0.0764275 -0.99528)
(-0.193436 -0.149753 0.969617)
(-0.180072 -0.126911 0.975432)
(-0.164265 -0.0933067 0.981993)
(-0.307154 -0.194068 0.931662)
(-0.300995 -0.170865 0.938193)
(0.170572 -0.139447 0.975428)
(0.0367453 0.043911 -0.998359)
(0.013358 0.014597 -0.999804)
(-0.420408 0.487867 -0.765011)
(-0.446066 0.428515 -0.785748)
(-0.421583 -0.255271 0.870117)
(0.426651 0.433198 0.79392)
(0.0958815 -0.0251669 0.995075)
(0.143928 -0.0388476 0.988825)
(0.103439 -0.0410349 0.993789)
(0.0545077 -0.0179907 0.998351)
(-0.000324054 0.00109656 0.999999)
(-0.0559451 0.0128235 0.998351)
(-0.112247 0.0182199 0.993513)
(-0.1148 0.133515 0.984375)
(0.020613 -0.0267508 -0.99943)
(-0.0882851 0.0974487 0.991317)
(-0.0495179 0.0598264 0.99698)
(-0.266102 0.254576 -0.929721)
(0.000285138 0.0273303 0.999626)
(-0.264488 0.242388 -0.933431)
(0.0672024 -0.00232256 0.997737)
(-0.264112 0.222178 -0.938553)
(-0.267032 0.195604 -0.943628)
(-0.27598 0.157425 -0.948184)
(-0.295754 0.100169 -0.949998)
(-0.340256 0.00120416 -0.940332)
(-0.154675 0.31582 -0.936127)
(-0.221005 0.252011 -0.94215)
(-0.262884 0.22047 -0.9393)
(-0.295522 0.20267 -0.933591)
(-0.323848 0.192356 -0.926349)
(-0.225818 -0.0417437 0.973275)
(-0.264171 0.00296373 0.964471)