/*--------------------------------*- C++ -*----------------------------------*\
| =========                 |                                                 |
| \\      /  F ield         | OpenFOAM: The Open Source CFD Toolbox           |
|  \\    /   O peration     | Version:  2.3.0                                 |
|   \\  /    A nd           | Web:      www.OpenFOAM.org                      |
|    \\/     M anipulation  |                                                 |
\*---------------------------------------------------------------------------*/
FoamFile
{
    version     2.0;
    format      binary;
    class       volScalarField;
    location    "0";
    object      alpha.air;
}
// * * * * * * * * * * * * * * * * * * * * * * * * * * * * * * * * * * * * * //

dimensions      [0 0 0 0 0 0 0];

internalField   uniform 0;

boundaryField
{
    stator
    {
        type            zeroGradient;
    }
    rotor
    {
        type            zeroGradient;
    }
    spargerInlet
    {
        type            fixedValue;
        value           uniform 1;
    }
    spargerWall
    {
        type            zeroGradient;
    }
    top
    {
        type            inletOutlet;
        phi             phi.air;
        inletValue      uniform 1;
        value           uniform 1;
    }
}


// ************************************************************************* //
