/*--------------------------------*- C++ -*----------------------------------*\
| =========                 |                                                 |
| \\      /  F ield         | OpenFOAM: The Open Source CFD Toolbox           |
|  \\    /   O peration     | Version:  dev                                   |
|   \\  /    A nd           | Web:      www.OpenFOAM.org                      |
|    \\/     M anipulation  |                                                 |
\*---------------------------------------------------------------------------*/
FoamFile
{
    version     2.0;
    format      ascii;
    class       volScalarField;
    location    "0";
    object      moment.1.populationBalance;
}
// * * * * * * * * * * * * * * * * * * * * * * * * * * * * * * * * * * * * * //

dimensions      [0 -2 0 0 0 0 0];

internalField   uniform 3.080216848918031;

boundaryField
{
    inletTop
    {
        type            fixedValue;
        value           uniform 1;
    }
    inletBottom
    {
        type            fixedValue;
        value           uniform 1;
    }
    outlet
    {
        type            zeroGradient;
    }
    walls
    {
        type            zeroGradient;
    }
    reactorWalls
    {
        type            zeroGradient;
    }
    spargerWalls
    {
        type            zeroGradient;
    }
    impellerWalls
    {
        type            zeroGradient;
    }


}


// ************************************************************************* //
