/*--------------------------------*- C++ -*----------------------------------*\
| =========                 |                                                 |
| \\      /  F ield         | OpenFOAM: The Open Source CFD Toolbox           |
|  \\    /   O peration     | Version:  2.3.0                                 |
|   \\  /    A nd           | Web:      www.OpenFOAM.org                      |
|    \\/     M anipulation  |                                                 |
\*---------------------------------------------------------------------------*/
FoamFile
{
    version     2.0;
    format      binary;
    class       volScalarField;
    location    "0";
    object      p;
}
// * * * * * * * * * * * * * * * * * * * * * * * * * * * * * * * * * * * * * //

dimensions      [1 -1 -2 0 0 0 0];

internalField   uniform 100000;

boundaryField
{
    stator
    {
        type            calculated;
        value           $internalField;
    }
    rotor
    {
        type            calculated;
        value           $internalField;
    }
    spargerWall
    {
        type            calculated;
        value           $internalField;
    }

    shaft
    {
        type            calculated;
        value           $internalField;
    }
    top
    {
        type            calculated;
        value           $internalField;
    }
    spargerInlet
    {
        type            calculated;
        value           $internalField;
    }
}


// ************************************************************************* //
