/*--------------------------------*- C++ -*----------------------------------*\
| =========                 |                                                 |
| \\      /  F ield         | OpenFOAM: The Open Source CFD Toolbox           |
|  \\    /   O peration     | Version:  4.0                                   |
|   \\  /    A nd           | Web:      www.OpenFOAM.org                      |
|    \\/     M anipulation  |                                                 |
\*---------------------------------------------------------------------------*/
FoamFile
{
    version     2.0;
    format      ascii;
    class       featureEdgeMesh;
    location    "constant/triSurface";
    object      Impeller.eMesh;
}
// * * * * * * * * * * * * * * * * * * * * * * * * * * * * * * * * * * * * * //


// points:

366
(
(0.01775 0.0202543 0.0872242)
(0.01775 -0.0232241 0.0437457)
(0.01775 -0.0217392 0.0422608)
(0.01775 0.0217392 0.0857392)
(-0.0289877 -0.00375988 0.0437457)
(-0.0277017 -0.00450234 0.0422608)
(0.00995172 -0.0262416 0.0857392)
(0.00866574 -0.0254991 0.0872242)
(-0.0277017 0.00450234 0.0857392)
(0.00995172 0.0262416 0.0422608)
(-0.0264157 0.0052448 0.0872242)
(0.0112377 0.026984 0.0437457)
(0.00632455 0.00774597 0.071746)
(0.00440838 0.00897587 0.0586642)
(0.00354593 0.00935021 0.056254)
(0.00702406 0.00711776 0.0740876)
(-0.00987048 0.00160424 0.071746)
(-0.00997752 -0.000670167 0.0586642)
(-0.00987048 -0.00160424 0.056254)
(-0.00967619 0.00252414 0.0740876)
(0.00354593 -0.00935021 0.071746)
(0.00556914 -0.0083057 0.0586642)
(0.00265213 -0.0096419 0.0740876)
(0.00632455 -0.00774597 0.056254)
(0.005 -1.22465e-18 0.25)
(0.00484292 0.00124345 0.25)
(0.00438153 0.00240877 0.25)
(0.00364484 0.00342274 0.25)
(0.00267913 0.00422164 0.25)
(0.00154508 0.00475528 0.25)
(0.000313953 0.00499013 0.25)
(-0.000936907 0.00491144 0.25)
(-0.0021289 0.00452414 0.25)
(-0.00318712 0.00385257 0.25)
(-0.00404508 0.00293893 0.25)
(-0.00464888 0.00184062 0.25)
(-0.00496057 0.000626666 0.25)
(-0.00496057 -0.000626666 0.25)
(-0.00464888 -0.00184062 0.25)
(-0.00404508 -0.00293893 0.25)
(-0.00318712 -0.00385257 0.25)
(-0.0021289 -0.00452414 0.25)
(-0.000936907 -0.00491144 0.25)
(0.000313953 -0.00499013 0.25)
(0.00154508 -0.00475528 0.25)
(0.00267913 -0.00422164 0.25)
(0.00364484 -0.00342274 0.25)
(0.00438153 -0.00240877 0.25)
(0.00484292 -0.00124345 0.25)
(0.00535827 -0.00844328 0.0765)
(0.00728969 -0.00684547 0.0765)
(-0.00637424 0.00770513 0.0765)
(-0.00809017 0.00587785 0.0765)
(-0.00809017 -0.00587785 0.0765)
(-0.00637424 -0.00770513 0.0765)
(-0.00425779 -0.00904827 0.0765)
(0.00876307 -0.00481754 0.0765)
(0.00968583 -0.0024869 0.0765)
(-0.00929776 -0.00368125 0.0765)
(-0.00187381 0.00982287 0.0765)
(-0.00425779 0.00904827 0.0765)
(-0.00187381 -0.00982287 0.0765)
(0.01 -2.44929e-18 0.0765)
(0.000627905 0.00998027 0.0765)
(-0.00992115 -0.00125333 0.0765)
(0.00968583 0.0024869 0.0765)
(0.000627905 -0.00998027 0.0765)
(0.00309017 0.00951056 0.0765)
(0.00876307 0.00481754 0.0765)
(-0.00992115 0.00125333 0.0765)
(0.00535827 0.00844328 0.0765)
(0.00309017 -0.00951056 0.0765)
(0.00728969 0.00684547 0.0765)
(-0.00929776 0.00368125 0.0765)
(0.01 -2.44929e-18 0.0515)
(0.00968583 0.0024869 0.0515)
(0.00876307 0.00481754 0.0515)
(0.00728969 0.00684547 0.0515)
(0.00535827 0.00844328 0.0515)
(0.00309017 0.00951056 0.0515)
(-0.00187381 0.00982287 0.0515)
(-0.00425779 0.00904827 0.0515)
(-0.00637424 0.00770513 0.0515)
(-0.00809017 0.00587785 0.0515)
(-0.00929776 0.00368125 0.0515)
(-0.00992115 0.00125333 0.0515)
(-0.00992115 -0.00125333 0.0515)
(-0.00929776 -0.00368125 0.0515)
(-0.00809017 -0.00587785 0.0515)
(-0.00637424 -0.00770513 0.0515)
(-0.00425779 -0.00904827 0.0515)
(-0.00187381 -0.00982287 0.0515)
(0.000627905 -0.00998027 0.0515)
(0.00309017 -0.00951056 0.0515)
(0.00535827 -0.00844328 0.0515)
(0.00728969 -0.00684547 0.0515)
(0.00876307 -0.00481754 0.0515)
(0.00968583 -0.0024869 0.0515)
(0.000627905 0.00998027 0.0515)
(0.0353849 -0.00350482 0.063465)
(0.0355 -0.00148492 0.0654849)
(0.0314337 -0.0131505 0.0538193)
(0.0326593 -0.0113242 0.0556457)
(0.0350403 -0.00551161 0.0614582)
(0.033673 -0.00943402 0.0575358)
(0.0344684 -0.0074923 0.0594776)
(0.0201663 0.0191739 0.0861437)
(0.0224518 0.0179594 0.0849293)
(0.0245917 0.0166189 0.0835888)
(0.0265721 0.015161 0.0821308)
(0.0283802 0.0135951 0.0805649)
(0.0300042 0.0119314 0.0789012)
(0.0314337 0.0101807 0.0771505)
(0.0201663 -0.0221437 0.0448261)
(0.0326593 0.00835434 0.0753242)
(0.0224518 -0.0209293 0.0460406)
(0.033673 0.00646417 0.073434)
(0.0245917 -0.0195888 0.0473811)
(0.0344684 0.00452245 0.0714923)
(0.0265721 -0.0181308 0.048839)
(0.0350403 0.00254177 0.0695116)
(0.0283802 -0.0165649 0.0504049)
(0.0353849 0.000534971 0.0675048)
(0.0300042 -0.0149012 0.0520686)
(0.0355 -8.88178e-18 0.064)
(0.0353849 -0.0020199 0.0619801)
(0.0326593 -0.00983926 0.0541607)
(0.0314337 -0.0116656 0.0523344)
(0.0350403 -0.00402669 0.0599733)
(0.033673 -0.00794909 0.0560509)
(0.0344684 -0.00600737 0.0579926)
(0.0201663 0.0206588 0.0846588)
(0.0224518 0.0194444 0.0834444)
(0.0245917 0.0181038 0.0821038)
(0.0265721 0.0166459 0.0806459)
(0.0283802 0.01508 0.07908)
(0.0300042 0.0134163 0.0774163)
(0.0314337 0.0116656 0.0756656)
(0.0201663 -0.0206588 0.0433412)
(0.0326593 0.00983926 0.0738393)
(0.0224518 -0.0194444 0.0445556)
(0.033673 0.00794909 0.0719491)
(0.0245917 -0.0181038 0.0458962)
(0.0344684 0.00600737 0.0700074)
(0.0265721 -0.0166459 0.0473541)
(0.0350403 0.00402669 0.0680267)
(0.0283802 -0.01508 0.04892)
(0.0353849 0.0020199 0.0660199)
(0.0300042 -0.0134163 0.0505837)
(-0.01775 -0.0307439 0.064)
(-0.0194417 -0.0296343 0.0619801)
(-0.0248507 -0.0233641 0.0541607)
(-0.0258196 -0.0213896 0.0523344)
(-0.0210074 -0.0283324 0.0599733)
(-0.0237206 -0.0251872 0.0560509)
(-0.0224368 -0.0268468 0.0579926)
(0.00780788 -0.0277939 0.0846588)
(0.0056134 -0.029166 0.0834444)
(0.00338252 -0.030349 0.0821038)
(0.0011297 -0.0313351 0.0806459)
(-0.00113044 -0.032118 0.07908)
(-0.00338325 -0.0326926 0.0774163)
(-0.00561412 -0.0330552 0.0756656)
(-0.0279742 -0.00713514 0.0433412)
(-0.00780859 -0.0332034 0.0738393)
(-0.0280652 -0.00972166 0.0445556)
(-0.00995241 -0.0331363 0.0719491)
(-0.0279742 -0.0122451 0.0458962)
(-0.0120317 -0.0328542 0.0700074)
(-0.0277018 -0.0146892 0.0473541)
(-0.0140329 -0.0323591 0.0680267)
(-0.0272498 -0.017038 0.04892)
(-0.0159432 -0.0316542 0.0660199)
(-0.026621 -0.0192763 0.0505837)
(-0.0207277 -0.0288918 0.063465)
(-0.019036 -0.0300014 0.0654849)
(-0.0271056 -0.0206471 0.0538193)
(-0.0261367 -0.0226217 0.0556457)
(-0.0222933 -0.02759 0.0614582)
(-0.0250066 -0.0244447 0.0575358)
(-0.0237227 -0.0261044 0.0594776)
(0.0065219 -0.0270515 0.0861437)
(0.00432742 -0.0284236 0.0849293)
(0.00209654 -0.0296065 0.0835888)
(-0.000156278 -0.0305926 0.0821308)
(-0.00241642 -0.0313755 0.0805649)
(-0.00466924 -0.0319501 0.0789012)
(-0.00690011 -0.0323127 0.0771505)
(-0.0292602 -0.00639267 0.0448261)
(-0.00909457 -0.0324609 0.0753242)
(-0.0293512 -0.0089792 0.0460406)
(-0.0112384 -0.0323938 0.073434)
(-0.0292602 -0.0115027 0.0473811)
(-0.0133177 -0.0321118 0.0714923)
(-0.0289878 -0.0139467 0.048839)
(-0.0153189 -0.0316167 0.0695116)
(-0.0285358 -0.0162955 0.0504049)
(-0.0172291 -0.0309117 0.0675048)
(-0.027907 -0.0185338 0.0520686)
(-0.01775 0.0307439 0.064)
(-0.0159432 0.0316542 0.0619801)
(-0.00780859 0.0332034 0.0541607)
(-0.00561412 0.0330552 0.0523344)
(-0.0140329 0.0323591 0.0599733)
(-0.00995241 0.0331363 0.0560509)
(-0.0120317 0.0328542 0.0579926)
(-0.0279742 0.00713514 0.0846588)
(-0.0280652 0.00972166 0.0834444)
(-0.0279742 0.0122451 0.0821038)
(-0.0277018 0.0146892 0.0806459)
(-0.0272498 0.017038 0.07908)
(-0.026621 0.0192763 0.0774163)
(-0.0258196 0.0213896 0.0756656)
(0.00780788 0.0277939 0.0433412)
(-0.0248507 0.0233641 0.0738393)
(0.0056134 0.029166 0.0445556)
(-0.0237206 0.0251872 0.0719491)
(0.00338252 0.030349 0.0458962)
(-0.0224368 0.0268468 0.0700074)
(0.0011297 0.0313351 0.0473541)
(-0.0210074 0.0283324 0.0680267)
(-0.00113044 0.032118 0.04892)
(-0.0194417 0.0296343 0.0660199)
(-0.00338325 0.0326926 0.0505837)
(-0.0146572 0.0323966 0.063465)
(-0.016464 0.0314864 0.0654849)
(-0.00432814 0.0337976 0.0538193)
(-0.0065226 0.0339459 0.0556457)
(-0.0127469 0.0331016 0.0614582)
(-0.00866642 0.0338787 0.0575358)
(-0.0107457 0.0335967 0.0594776)
(-0.0266882 0.0078776 0.0861437)
(-0.0267792 0.0104641 0.0849293)
(-0.0266882 0.0129876 0.0835888)
(-0.0264158 0.0154317 0.0821308)
(-0.0259638 0.0177805 0.0805649)
(-0.025335 0.0200187 0.0789012)
(-0.0245336 0.022132 0.0771505)
(0.00909386 0.0285364 0.0448261)
(-0.0235647 0.0241066 0.0753242)
(0.00689939 0.0299085 0.0460406)
(-0.0224347 0.0259296 0.073434)
(0.00466851 0.0310914 0.0473811)
(-0.0211508 0.0275893 0.0714923)
(0.00241569 0.0320775 0.048839)
(-0.0197214 0.0290749 0.0695116)
(0.000155542 0.0328605 0.0504049)
(-0.0181557 0.0303767 0.0675048)
(-0.00209727 0.0334351 0.0520686)
(-0.000936907 -0.00491144 0.03)
(0.000313953 -0.00499013 0.03)
(0.00154508 -0.00475528 0.03)
(0.005 -1.22465e-18 0.03)
(0.00484292 0.00124345 0.03)
(0.00267913 -0.00422164 0.03)
(0.00438153 0.00240877 0.03)
(0.00364484 -0.00342274 0.03)
(0.00438153 -0.00240877 0.03)
(0.00364484 0.00342274 0.03)
(0.00484292 -0.00124345 0.03)
(0.00267913 0.00422164 0.03)
(0.00154508 0.00475528 0.03)
(0.000313953 0.00499013 0.03)
(-0.000936907 0.00491144 0.03)
(-0.0021289 0.00452414 0.03)
(-0.00318712 0.00385257 0.03)
(-0.00404508 0.00293893 0.03)
(-0.00464888 0.00184062 0.03)
(-0.00496057 0.000626666 0.03)
(-0.00496057 -0.000626666 0.03)
(-0.00464888 -0.00184062 0.03)
(-0.00404508 -0.00293893 0.03)
(-0.00318712 -0.00385257 0.03)
(-0.0021289 -0.00452414 0.03)
(-0.000936907 -0.00491144 0.0765)
(0.000313953 -0.00499013 0.0765)
(0.00154508 -0.00475528 0.0765)
(0.00267913 -0.00422164 0.0765)
(0.005 -1.22465e-18 0.0765)
(0.00484292 0.00124345 0.0765)
(0.00364484 -0.00342274 0.0765)
(0.00438153 0.00240877 0.0765)
(0.00438153 -0.00240877 0.0765)
(0.00364484 0.00342274 0.0765)
(0.00484292 -0.00124345 0.0765)
(0.00267913 0.00422164 0.0765)
(0.00154508 0.00475528 0.0765)
(0.000313953 0.00499013 0.0765)
(-0.000936907 0.00491144 0.0765)
(-0.0021289 0.00452414 0.0765)
(-0.00318712 0.00385257 0.0765)
(-0.00404508 0.00293893 0.0765)
(-0.00464888 0.00184062 0.0765)
(-0.00496057 0.000626666 0.0765)
(-0.00496057 -0.000626666 0.0765)
(-0.00464888 -0.00184062 0.0765)
(-0.00404508 -0.00293893 0.0765)
(-0.00318712 -0.00385257 0.0765)
(-0.0021289 -0.00452414 0.0765)
(0.00956698 0.00291083 0.0669108)
(0.01 -2.44929e-18 0.064)
(0.01 -2.44929e-18 0.0669698)
(0.00965352 0.00260952 0.0695794)
(0.00846627 0.00532187 0.0693219)
(0.00749407 0.00662109 0.0706211)
(0.00214513 0.00976721 0.0602285)
(-0.0034484 0.00938662 0.0622931)
(-0.00179558 0.00983747 0.0606363)
(-0.00261411 0.00965228 0.0644076)
(-0.00383923 0.00923365 0.0656779)
(-0.005 0.00866025 0.064)
(-0.005 0.00866025 0.0669698)
(-0.00730434 0.00682983 0.0669108)
(-0.00708667 0.00705543 0.0695794)
(-0.00884201 0.00467106 0.0693219)
(-0.00948107 0.00317951 0.0706211)
(-0.00953122 -0.00302587 0.0602285)
(-0.00640485 -0.00767971 0.0622931)
(-0.00762171 -0.00647376 0.0606363)
(-0.005 -0.00866025 0.064)
(-0.00705206 -0.00709002 0.0644076)
(-0.00607696 -0.0079417 0.0656779)
(-0.005 -0.00866025 0.0669698)
(-0.00226263 -0.00974066 0.0669108)
(-0.00256685 -0.00966495 0.0695794)
(0.000375746 -0.00999294 0.0693219)
(0.001987 -0.0098006 0.0706211)
(0.00738609 -0.00674134 0.0602285)
(0.00877844 -0.00478946 0.0621804)
(0.00985325 -0.00170691 0.0622931)
(0.00941729 -0.00336372 0.0606363)
(0.00966617 -0.00256225 0.0644076)
(0.00991619 -0.00129195 0.0656779)
(0.00817022 -0.00576607 0.0582339)
(0.00863809 0.0050382 0.072008)
(-0.00907867 -0.00419258 0.0582339)
(4.41699e-05 -0.0099999 0.072008)
(-0.00853701 -0.00520763 0.0621804)
(0.000908451 0.00995865 0.0582339)
(-0.00868225 0.0049617 0.072008)
(-0.000241429 0.00999708 0.0621804)
(0.00267913 -0.00422164 0.0515)
(0.00364484 -0.00342274 0.0515)
(-0.00318712 0.00385257 0.0515)
(-0.00404508 0.00293893 0.0515)
(-0.00404508 -0.00293893 0.0515)
(-0.00318712 -0.00385257 0.0515)
(-0.0021289 -0.00452414 0.0515)
(0.00438153 -0.00240877 0.0515)
(0.00484292 -0.00124345 0.0515)
(-0.00464888 -0.00184062 0.0515)
(-0.000936907 0.00491144 0.0515)
(-0.0021289 0.00452414 0.0515)
(0.005 -1.22465e-18 0.0515)
(-0.000936907 -0.00491144 0.0515)
(0.000313953 0.00499013 0.0515)
(0.00484292 0.00124345 0.0515)
(-0.00496057 -0.000626666 0.0515)
(0.00154508 0.00475528 0.0515)
(0.000313953 -0.00499013 0.0515)
(0.00438153 0.00240877 0.0515)
(0.00267913 0.00422164 0.0515)
(-0.00496057 0.000626666 0.0515)
(0.00364484 0.00342274 0.0515)
(0.00154508 -0.00475528 0.0515)
(-0.00464888 0.00184062 0.0515)
)


// edges:

378
(
(24 25)
(25 26)
(26 27)
(27 28)
(28 29)
(29 30)
(30 31)
(31 32)
(32 33)
(33 34)
(34 35)
(35 36)
(36 37)
(37 38)
(38 39)
(39 40)
(40 41)
(41 42)
(42 43)
(43 44)
(44 45)
(45 46)
(46 47)
(47 48)
(48 24)
(49 50)
(51 52)
(53 54)
(54 55)
(56 57)
(58 53)
(59 60)
(50 56)
(55 61)
(57 62)
(63 59)
(64 58)
(62 65)
(60 51)
(61 66)
(67 63)
(65 68)
(69 64)
(70 67)
(66 71)
(68 72)
(72 70)
(73 69)
(71 49)
(52 73)
(74 75)
(75 76)
(76 77)
(77 78)
(78 79)
(80 81)
(81 82)
(82 83)
(83 84)
(84 85)
(85 86)
(86 87)
(87 88)
(88 89)
(89 90)
(90 91)
(91 92)
(92 93)
(93 94)
(94 95)
(95 96)
(96 97)
(97 74)
(79 98)
(98 80)
(99 100)
(101 102)
(103 99)
(102 104)
(105 103)
(104 105)
(0 15)
(106 0)
(107 106)
(108 107)
(109 108)
(110 109)
(111 110)
(112 111)
(21 1)
(1 113)
(114 112)
(113 115)
(116 114)
(115 117)
(118 116)
(117 119)
(120 118)
(119 121)
(122 120)
(121 123)
(100 122)
(123 101)
(23 2)
(2 1)
(124 125)
(126 127)
(125 128)
(129 126)
(128 130)
(130 129)
(12 3)
(3 131)
(131 132)
(132 133)
(133 134)
(134 135)
(135 136)
(136 137)
(138 2)
(137 139)
(140 138)
(139 141)
(142 140)
(141 143)
(144 142)
(143 145)
(146 144)
(145 147)
(148 146)
(147 124)
(127 148)
(0 3)
(4 17)
(18 5)
(5 4)
(149 150)
(151 152)
(150 153)
(154 151)
(153 155)
(155 154)
(20 6)
(6 156)
(156 157)
(157 158)
(158 159)
(159 160)
(160 161)
(161 162)
(163 5)
(162 164)
(165 163)
(164 166)
(167 165)
(166 168)
(169 167)
(168 170)
(171 169)
(170 172)
(173 171)
(172 149)
(152 173)
(22 7)
(7 6)
(174 175)
(176 177)
(178 174)
(177 179)
(180 178)
(179 180)
(181 7)
(182 181)
(183 182)
(184 183)
(185 184)
(186 185)
(187 186)
(4 188)
(189 187)
(188 190)
(191 189)
(190 192)
(193 191)
(192 194)
(195 193)
(194 196)
(197 195)
(196 198)
(175 197)
(198 176)
(199 200)
(201 202)
(200 203)
(204 201)
(203 205)
(205 204)
(16 8)
(8 206)
(206 207)
(207 208)
(208 209)
(209 210)
(210 211)
(211 212)
(9 14)
(213 9)
(212 214)
(215 213)
(214 216)
(217 215)
(216 218)
(219 217)
(218 220)
(221 219)
(220 222)
(223 221)
(222 199)
(202 223)
(19 10)
(10 8)
(224 225)
(226 227)
(228 224)
(227 229)
(230 228)
(229 230)
(231 10)
(232 231)
(233 232)
(234 233)
(235 234)
(236 235)
(237 236)
(13 11)
(11 238)
(239 237)
(238 240)
(241 239)
(240 242)
(243 241)
(242 244)
(245 243)
(244 246)
(247 245)
(246 248)
(225 247)
(248 226)
(9 11)
(249 250)
(250 251)
(252 253)
(251 254)
(253 255)
(254 256)
(256 257)
(255 258)
(257 259)
(258 260)
(259 252)
(260 261)
(261 262)
(262 263)
(263 264)
(264 265)
(265 266)
(266 267)
(267 268)
(268 269)
(269 270)
(270 271)
(271 272)
(272 273)
(273 249)
(274 275)
(275 276)
(276 277)
(278 279)
(277 280)
(279 281)
(280 282)
(281 283)
(282 284)
(283 285)
(284 278)
(285 286)
(286 287)
(287 288)
(288 289)
(289 290)
(290 291)
(291 292)
(292 293)
(293 294)
(294 295)
(295 296)
(296 297)
(297 298)
(298 274)
(299 300)
(301 302)
(303 299)
(304 303)
(12 304)
(14 13)
(15 12)
(13 305)
(306 307)
(308 309)
(310 306)
(309 311)
(312 310)
(311 313)
(314 312)
(315 314)
(16 315)
(18 17)
(19 16)
(17 316)
(317 318)
(319 317)
(320 321)
(321 322)
(323 319)
(322 324)
(325 323)
(326 325)
(20 326)
(22 20)
(23 21)
(21 327)
(327 328)
(329 330)
(331 332)
(300 329)
(332 301)
(328 331)
(333 23)
(330 333)
(302 334)
(334 15)
(335 18)
(318 335)
(324 336)
(336 22)
(316 337)
(337 320)
(338 14)
(307 338)
(313 339)
(339 19)
(305 340)
(340 308)
(341 342)
(343 344)
(345 346)
(346 347)
(348 349)
(350 345)
(342 348)
(351 352)
(349 353)
(347 354)
(355 351)
(353 356)
(357 350)
(352 343)
(358 355)
(354 359)
(356 360)
(361 358)
(362 357)
(360 363)
(363 361)
(359 364)
(365 362)
(364 341)
(344 365)
)

// * * * * * * * * * * * * * * * * * * * * * * * * * * * * * * * * * * * * * //


// ************************************************************************* //
