/*--------------------------------*- C++ -*----------------------------------*\
| =========                 |                                                 |
| \\      /  F ield         | OpenFOAM: The Open Source CFD Toolbox           |
|  \\    /   O peration     | Version:  4.0                                   |
|   \\  /    A nd           | Web:      www.OpenFOAM.org                      |
|    \\/     M anipulation  |                                                 |
\*---------------------------------------------------------------------------*/
FoamFile
{
    version     2.0;
    format      ascii;
    class       featureEdgeMesh;
    location    "constant/triSurface";
    object      InletTop.eMesh;
}
// * * * * * * * * * * * * * * * * * * * * * * * * * * * * * * * * * * * * * //


// points:

212
(
(-0.013646 0.00240289 0.0290106)
(-0.0136784 0.00258443 0.0290315)
(-0.0136467 0.0022328 0.0290011)
(-0.0140535 0.001511 0.0290897)
(-0.0139285 0.00161901 0.029061)
(-0.0141901 0.0014273 0.029117)
(-0.0143244 0.00137107 0.0291391)
(-0.0144572 0.00133646 0.029156)
(-0.0146321 0.00131919 0.0291702)
(-0.0148271 0.00133634 0.0291749)
(-0.0136936 0.00200203 0.0290047)
(-0.0137558 0.00185665 0.0290185)
(-0.0145302 0.00331282 0.0291747)
(-0.0146714 0.00331872 0.02917)
(-0.0138341 0.00173051 0.0290378)
(-0.0143821 0.00328465 0.0291731)
(-0.0154867 0.0028551 0.0290496)
(-0.015566 0.0027026 0.0290343)
(-0.0153996 0.00297237 0.0290673)
(-0.0152728 0.00309545 0.0290924)
(-0.0156302 0.00247557 0.0290263)
(-0.0151159 0.00320001 0.0291202)
(-0.0149629 0.00326641 0.0291427)
(-0.014815 0.00330415 0.0291593)
(-0.0156419 0.00231622 0.0290303)
(-0.0156329 0.00217926 0.0290391)
(-0.0155989 0.00202728 0.0290549)
(-0.0155361 0.00187035 0.029077)
(-0.0154544 0.00173533 0.0291)
(-0.0149852 0.0013797 0.0291697)
(-0.0151145 0.00143757 0.0291591)
(-0.0152315 0.00151101 0.0291443)
(-0.0153505 0.00161291 0.0291236)
(-0.0142459 0.00323715 0.0291648)
(-0.0140996 0.00315894 0.0291479)
(-0.0139462 0.00303693 0.0291196)
(-0.0138196 0.00288731 0.0290862)
(-0.0137267 0.00272092 0.0290535)
(-0.0115058 -0.00784101 0.0290292)
(-0.0117319 -0.00774878 0.0290687)
(-0.0113127 -0.00798163 0.0290034)
(-0.0109942 -0.00874594 0.0290656)
(-0.0110028 -0.00857895 0.029038)
(-0.0110161 -0.00892445 0.0290975)
(-0.0110753 -0.00910961 0.0291297)
(-0.0111436 -0.00924055 0.0291499)
(-0.0112044 -0.00932793 0.0291612)
(-0.0111628 -0.00815753 0.0289967)
(-0.0110808 -0.00830579 0.0290044)
(-0.011444 -0.0095493 0.0291749)
(-0.011292 -0.0094264 0.0291707)
(-0.0126049 -0.00792247 0.029175)
(-0.0127224 -0.00802908 0.0291705)
(-0.0124781 -0.0078391 0.029172)
(-0.0129728 -0.00891719 0.0290542)
(-0.0129198 -0.0090913 0.0290378)
(-0.0129925 -0.0087629 0.0290734)
(-0.0129891 -0.00861881 0.0290937)
(-0.0128027 -0.0093017 0.0290294)
(-0.0129656 -0.00847869 0.0291144)
(-0.0129099 -0.00831315 0.0291384)
(-0.012825 -0.00815814 0.0291583)
(-0.0127404 -0.00937903 0.0290309)
(-0.0126692 -0.00945119 0.0290353)
(-0.0124313 -0.00961308 0.0290619)
(-0.0122967 -0.0096669 0.029081)
(-0.0125561 -0.00954082 0.0290463)
(-0.0116331 -0.00964664 0.0291661)
(-0.0118242 -0.00969946 0.0291473)
(-0.0119954 -0.00971391 0.0291251)
(-0.012152 -0.00970131 0.0291025)
(-0.0123318 -0.00777282 0.0291611)
(-0.0121548 -0.00772697 0.0291398)
(-0.0119577 -0.00771456 0.029109)
(-0.00331657 -0.0145708 0.0291742)
(-0.00331318 -0.0147515 0.0291653)
(-0.00328944 -0.0144006 0.0291734)
(-0.00134086 -0.0148498 0.0291747)
(-0.00131917 -0.0146347 0.0291702)
(-0.00282227 -0.0155067 0.0290474)
(-0.00262238 -0.0155954 0.0290314)
(-0.00296239 -0.0154081 0.0290674)
(-0.00307297 -0.0152996 0.0290889)
(-0.00247557 -0.0156302 0.029028)
(-0.00316321 -0.0151787 0.0291111)
(-0.00323378 -0.0150468 0.0291322)
(-0.00328045 -0.014918 0.0291493)
(-0.00225685 -0.0156405 0.029035)
(-0.00188657 -0.0155441 0.0290755)
(-0.00169753 -0.0154258 0.0291079)
(-0.00209615 -0.0156173 0.0290485)
(-0.00140964 -0.0150582 0.0291648)
(-0.00153182 -0.015259 0.0291406)
(-0.00324799 -0.014272 0.0291663)
(-0.00316844 -0.0141146 0.029149)
(-0.00303831 -0.0139476 0.0291185)
(-0.00285032 -0.0137952 0.0290766)
(-0.00263693 -0.0136943 0.0290373)
(-0.00242607 -0.0136482 0.0290106)
(-0.0021942 -0.0136503 0.0289982)
(-0.00148957 -0.0140841 0.0290953)
(-0.00159413 -0.0139537 0.0290659)
(-0.00139503 -0.0142604 0.0291286)
(-0.00133808 -0.0144488 0.0291547)
(-0.00197019 -0.0137053 0.0290054)
(-0.00183042 -0.01377 0.0290204)
(-0.00169641 -0.0138601 0.0290429)
(0.00789138 -0.0125624 0.0291749)
(0.00798836 -0.0126818 0.0291722)
(0.00781902 -0.0124399 0.0291709)
(0.00944805 -0.0113147 0.029173)
(0.00934774 -0.0112202 0.0291653)
(0.00955402 -0.0114513 0.0291744)
(0.00890844 -0.0129745 0.0290495)
(0.00907106 -0.0129277 0.0290331)
(0.00876241 -0.0129925 0.0290682)
(0.00858224 -0.012985 0.0290946)
(0.00927925 -0.0128185 0.029023)
(0.0093017 -0.0128027 0.0290228)
(0.00839257 -0.0129406 0.0291237)
(0.00823398 -0.012871 0.0291465)
(0.00810066 -0.0127836 0.0291628)
(0.00948999 -0.0126243 0.0290327)
(0.00967549 -0.0122682 0.0290798)
(0.00971138 -0.0120648 0.0291108)
(0.00959167 -0.0124728 0.0290503)
(0.00964663 -0.0116331 0.0291643)
(0.00970258 -0.0118435 0.0291418)
(0.00775706 -0.0122842 0.0291581)
(0.0077186 -0.0120903 0.0291336)
(0.00772143 -0.0118713 0.0290983)
(0.00778131 -0.0116328 0.0290565)
(0.00788861 -0.011429 0.029024)
(0.00802615 -0.0112677 0.0290067)
(0.00878459 -0.0109962 0.0290781)
(0.00860982 -0.0109991 0.0290492)
(0.00896815 -0.0110265 0.0291099)
(0.00910075 -0.0110715 0.029132)
(0.00923249 -0.0111386 0.0291516)
(0.00821152 -0.011129 0.0290056)
(0.00841099 -0.0110407 0.029022)
(0.013872 -0.00168174 0.029056)
(0.0137749 -0.0018219 0.0290327)
(0.0139799 -0.00157014 0.0290811)
(0.0147986 -0.0013314 0.0291749)
(0.0146096 -0.00131968 0.0291707)
(0.0149726 -0.00137522 0.0291686)
(0.0144474 -0.00329993 0.0291749)
(0.0145816 -0.00331729 0.0291728)
(0.0142942 -0.00325651 0.0291701)
(0.0154892 -0.00285123 0.0290407)
(0.0155668 -0.00270086 0.0290252)
(0.0154052 -0.00296582 0.0290585)
(0.0152841 -0.00308614 0.0290836)
(0.0156302 -0.00247557 0.0290168)
(0.0151357 -0.00318904 0.0291115)
(0.014991 -0.00325644 0.0291347)
(0.0148508 -0.00329721 0.0291527)
(0.0147144 -0.00331655 0.0291654)
(0.0156404 -0.00225616 0.0290241)
(0.0155533 -0.00190624 0.0290632)
(0.0154754 -0.00176575 0.0290872)
(0.0156104 -0.00206735 0.0290412)
(0.0151096 -0.00143492 0.0291564)
(0.0152518 -0.00152624 0.0291364)
(0.0153766 -0.0016401 0.029112)
(0.0141338 -0.00318011 0.0291557)
(0.0139819 -0.0030699 0.0291319)
(0.0138404 -0.00291632 0.0290987)
(0.0137253 -0.00271768 0.0290607)
(0.0136564 -0.00248547 0.029028)
(0.0136439 -0.00226556 0.0290118)
(0.0141131 -0.00147078 0.0291089)
(0.0142484 -0.00140006 0.0291326)
(0.0143849 -0.0013529 0.0291515)
(0.0144837 -0.00133182 0.0291618)
(0.0136823 -0.00203965 0.0290129)
(0.0110066 0.00887407 0.0290998)
(0.0109939 0.00869184 0.0290698)
(0.0110655 0.00908615 0.0291342)
(0.0111266 0.00921216 0.0291522)
(0.0112306 0.0093602 0.0291684)
(0.0113785 0.00950234 0.029175)
(0.0110922 0.00828103 0.0290191)
(0.0112069 0.00809668 0.0290135)
(0.0110419 0.00840705 0.0290305)
(0.0110073 0.00854936 0.0290484)
(0.0115757 0.00962236 0.0291668)
(0.0129663 0.00894622 0.0290364)
(0.012916 0.00910021 0.0290217)
(0.012989 0.00881022 0.0290536)
(0.0129914 0.00864583 0.0290777)
(0.0128027 0.0093017 0.0290135)
(0.0129637 0.00847103 0.0291055)
(0.0129119 0.00831794 0.0291298)
(0.0128439 0.00818753 0.0291489)
(0.0127632 0.00807532 0.0291628)
(0.0126718 0.00797896 0.0291715)
(0.0125659 0.0078938 0.029175)
(0.0127185 0.00940288 0.0290162)
(0.0125997 0.00950937 0.0290263)
(0.0122774 0.00967283 0.0290713)
(0.0120459 0.00971255 0.029108)
(0.0124909 0.00958156 0.0290396)
(0.0118038 0.00969572 0.0291429)
(0.0124466 0.00782236 0.0291725)
(0.0123043 0.0077634 0.0291629)
(0.0121287 0.00772307 0.0291434)
(0.011933 0.00771576 0.0291148)
(0.0117099 0.00775502 0.0290776)
(0.0115054 0.00784122 0.0290441)
(0.0113326 0.00796358 0.0290217)
)


// edges:

212
(
(0 1)
(2 0)
(3 4)
(5 3)
(6 5)
(7 6)
(8 7)
(9 8)
(10 2)
(11 10)
(12 13)
(14 11)
(15 12)
(4 14)
(16 17)
(18 16)
(19 18)
(17 20)
(21 19)
(22 21)
(23 22)
(13 23)
(20 24)
(24 25)
(25 26)
(27 28)
(26 27)
(29 9)
(30 29)
(31 30)
(32 31)
(28 32)
(33 15)
(34 33)
(35 34)
(36 35)
(37 36)
(1 37)
(38 39)
(40 38)
(41 42)
(43 41)
(44 43)
(45 44)
(46 45)
(47 40)
(48 47)
(42 48)
(49 50)
(51 52)
(53 51)
(50 46)
(54 55)
(56 54)
(57 56)
(55 58)
(59 57)
(60 59)
(61 60)
(52 61)
(58 62)
(62 63)
(64 65)
(66 64)
(63 66)
(67 49)
(68 67)
(69 68)
(70 69)
(65 70)
(71 53)
(72 71)
(73 72)
(39 73)
(74 75)
(76 74)
(77 78)
(79 80)
(81 79)
(82 81)
(80 83)
(84 82)
(85 84)
(86 85)
(75 86)
(83 87)
(88 89)
(90 88)
(87 90)
(91 77)
(92 91)
(89 92)
(93 76)
(94 93)
(95 94)
(96 95)
(97 96)
(98 97)
(99 98)
(100 101)
(102 100)
(103 102)
(78 103)
(104 99)
(105 104)
(106 105)
(101 106)
(107 108)
(109 107)
(110 111)
(112 110)
(113 114)
(115 113)
(116 115)
(114 117)
(117 118)
(119 116)
(120 119)
(121 120)
(108 121)
(118 122)
(123 124)
(125 123)
(122 125)
(126 112)
(127 126)
(124 127)
(128 109)
(129 128)
(130 129)
(131 130)
(132 131)
(133 132)
(134 135)
(136 134)
(137 136)
(138 137)
(111 138)
(139 133)
(140 139)
(135 140)
(141 142)
(143 141)
(144 145)
(146 144)
(147 148)
(149 147)
(150 151)
(152 150)
(153 152)
(151 154)
(155 153)
(156 155)
(157 156)
(158 157)
(148 158)
(154 159)
(160 161)
(162 160)
(159 162)
(163 146)
(164 163)
(165 164)
(161 165)
(166 149)
(167 166)
(168 167)
(169 168)
(170 169)
(171 170)
(172 143)
(173 172)
(174 173)
(175 174)
(145 175)
(176 171)
(142 176)
(177 178)
(179 177)
(180 179)
(181 180)
(182 181)
(183 184)
(185 183)
(186 185)
(178 186)
(187 182)
(188 189)
(190 188)
(191 190)
(189 192)
(193 191)
(194 193)
(195 194)
(196 195)
(197 196)
(198 197)
(192 199)
(199 200)
(201 202)
(203 201)
(200 203)
(204 187)
(202 204)
(205 198)
(206 205)
(207 206)
(208 207)
(209 208)
(210 209)
(211 210)
(184 211)
)

// * * * * * * * * * * * * * * * * * * * * * * * * * * * * * * * * * * * * * //


// ************************************************************************* //
