/*--------------------------------*- C++ -*----------------------------------*\
| =========                 |                                                 |
| \\      /  F ield         | OpenFOAM: The Open Source CFD Toolbox           |
|  \\    /   O peration     | Version:  4.0                                   |
|   \\  /    A nd           | Web:      www.OpenFOAM.org                      |
|    \\/     M anipulation  |                                                 |
\*---------------------------------------------------------------------------*/
FoamFile
{
    version     2.0;
    format      ascii;
    class       featureEdgeMesh;
    location    "constant/triSurface";
    object      InletBottom.eMesh;
}
// * * * * * * * * * * * * * * * * * * * * * * * * * * * * * * * * * * * * * //


// points:

105
(
(0.00995788 -0.011334 0.0228337)
(0.00977079 -0.011185 0.022825)
(0.0101611 -0.0114297 0.0228559)
(0.0103447 -0.0114733 0.0228816)
(0.0105179 -0.0114822 0.0229078)
(0.0111826 -0.00976843 0.022825)
(0.0112848 -0.00988541 0.0228287)
(0.0113705 -0.0100223 0.02284)
(0.0114415 -0.0101983 0.0228612)
(0.0114791 -0.0103962 0.0228898)
(0.0106857 -0.0114621 0.0229326)
(0.0108414 -0.0114164 0.0229532)
(0.0109813 -0.0113498 0.022968)
(0.0110941 -0.0112743 0.0229759)
(0.01119 -0.01119 0.0229784)
(0.0113268 -0.0110193 0.0229714)
(0.0114299 -0.0108039 0.022949)
(0.0114766 -0.010595 0.0229199)
(0.00951141 -0.0107201 0.0228679)
(0.00948658 -0.010569 0.0228921)
(0.0095548 -0.0108553 0.0228491)
(0.00961372 -0.0109774 0.0228356)
(0.00967831 -0.0110767 0.0228282)
(0.0105564 -0.00948557 0.0228936)
(0.0107928 -0.00953212 0.0228569)
(0.0110128 -0.00963483 0.0228323)
(0.0103046 -0.00949888 0.0229366)
(0.0100905 -0.00956303 0.0229695)
(0.00988999 -0.00967754 0.0229908)
(0.00976024 -0.00979161 0.0229949)
(0.00964478 -0.00993731 0.0229873)
(0.0095725 -0.010069 0.0229728)
(0.0095158 -0.0102283 0.0229496)
(0.00948631 -0.0103998 0.0229209)
(-0.00943739 -0.011787 0.022833)
(-0.00933161 -0.0115837 0.022825)
(-0.0094915 -0.011991 0.0228526)
(-0.00950327 -0.0121442 0.0228723)
(-0.0094891 -0.0123117 0.0228964)
(-0.00769318 -0.0127302 0.022825)
(-0.00777978 -0.0128343 0.0228278)
(-0.00787826 -0.0129246 0.0228358)
(-0.007999 -0.0130075 0.0228498)
(-0.00819811 -0.0130962 0.0228777)
(-0.00840894 -0.0131395 0.022909)
(-0.00944386 -0.0124835 0.0229219)
(-0.00937086 -0.0126412 0.022944)
(-0.0092719 -0.0127836 0.0229604)
(-0.00917962 -0.0128805 0.022968)
(-0.00907685 -0.0129631 0.0229706)
(-0.00886476 -0.0130763 0.0229622)
(-0.00863282 -0.0131355 0.0229392)
(-0.00889918 -0.0112256 0.0228729)
(-0.00874856 -0.0111745 0.0228993)
(-0.00902953 -0.0112936 0.0228523)
(-0.00914329 -0.0113756 0.0228374)
(-0.00923518 -0.0114625 0.0228288)
(-0.00750543 -0.0120783 0.0228931)
(-0.00751833 -0.0123168 0.0228562)
(-0.00757977 -0.0125275 0.0228335)
(-0.00755215 -0.0118351 0.0229368)
(-0.00765373 -0.0116165 0.0229746)
(-0.00778526 -0.0114478 0.0229968)
(-0.00791003 -0.0113389 0.0230034)
(-0.00809815 -0.0112297 0.0229966)
(-0.00825744 -0.0111746 0.0229801)
(-0.00839761 -0.0111495 0.0229602)
(-0.00857023 -0.0111462 0.0229313)
(-0.0132212 0.00724197 0.0228325)
(-0.0130118 0.00717088 0.022825)
(-0.0134198 0.00726518 0.0228507)
(-0.0136179 0.00724863 0.0228765)
(-0.0137881 0.00720128 0.0229027)
(-0.0138599 0.0053596 0.022825)
(-0.0139867 0.00543062 0.0228283)
(-0.0140956 0.00551372 0.022837)
(-0.0142014 0.00562176 0.0228521)
(-0.0143027 0.00576652 0.0228751)
(-0.0143745 0.00592014 0.0229001)
(-0.0139399 0.00712906 0.0229273)
(-0.0140779 0.00703214 0.022949)
(-0.0142008 0.0069096 0.0229656)
(-0.0142782 0.00680443 0.0229731)
(-0.0143423 0.00668793 0.0229757)
(-0.0144143 0.00647275 0.022968)
(-0.014436 0.00626742 0.022949)
(-0.0144197 0.00608536 0.0229253)
(-0.0125982 0.00681128 0.0228705)
(-0.0125307 0.00669008 0.0228928)
(-0.0127035 0.00694608 0.0228476)
(-0.0128394 0.00706783 0.0228314)
(-0.0129394 0.00713331 0.022826)
(-0.0131664 0.00530233 0.0228956)
(-0.0133338 0.00527056 0.0228682)
(-0.0134907 0.00526681 0.0228475)
(-0.0136501 0.0052885 0.0228327)
(-0.0129939 0.00536837 0.0229275)
(-0.0128324 0.00546812 0.0229583)
(-0.0126731 0.00561878 0.0229853)
(-0.012589 0.00573376 0.0229952)
(-0.0124938 0.00593043 0.0229962)
(-0.0124494 0.00610213 0.0229845)
(-0.0124363 0.00624186 0.0229683)
(-0.0124441 0.00639204 0.0229459)
(-0.0124765 0.00654693 0.0229192)
)


// edges:

105
(
(0 1)
(2 0)
(3 2)
(4 3)
(5 6)
(6 7)
(7 8)
(8 9)
(10 4)
(11 10)
(12 11)
(13 12)
(14 13)
(15 14)
(16 15)
(17 16)
(9 17)
(18 19)
(20 18)
(21 20)
(22 21)
(1 22)
(23 24)
(24 25)
(25 5)
(26 23)
(27 26)
(28 27)
(29 28)
(30 29)
(31 30)
(32 31)
(33 32)
(19 33)
(34 35)
(36 34)
(37 36)
(38 37)
(39 40)
(40 41)
(41 42)
(42 43)
(43 44)
(45 38)
(46 45)
(47 46)
(48 47)
(49 48)
(50 49)
(51 50)
(44 51)
(52 53)
(54 52)
(55 54)
(56 55)
(35 56)
(57 58)
(58 59)
(59 39)
(60 57)
(61 60)
(62 61)
(63 62)
(64 63)
(65 64)
(66 65)
(67 66)
(53 67)
(68 69)
(70 68)
(71 70)
(72 71)
(73 74)
(74 75)
(75 76)
(76 77)
(77 78)
(79 72)
(80 79)
(81 80)
(82 81)
(83 82)
(84 83)
(85 84)
(86 85)
(78 86)
(87 88)
(89 87)
(90 89)
(91 90)
(69 91)
(92 93)
(93 94)
(94 95)
(95 73)
(96 92)
(97 96)
(98 97)
(99 98)
(100 99)
(101 100)
(102 101)
(103 102)
(104 103)
(88 104)
)

// * * * * * * * * * * * * * * * * * * * * * * * * * * * * * * * * * * * * * //


// ************************************************************************* //
