/*--------------------------------*- C++ -*----------------------------------*\
| =========                 |                                                 |
| \\      /  F ield         | OpenFOAM: The Open Source CFD Toolbox           |
|  \\    /   O peration     | Version:  4.0                                   |
|   \\  /    A nd           | Web:      www.OpenFOAM.org                      |
|    \\/     M anipulation  |                                                 |
\*---------------------------------------------------------------------------*/
FoamFile
{
    version     2.0;
    format      ascii;
    class       featureEdgeMesh;
    location    "constant/triSurface";
    object      MRFzone.eMesh;
}
// * * * * * * * * * * * * * * * * * * * * * * * * * * * * * * * * * * * * * //


// points:

280
(
(-0.024687 -0.0339787 0.09)
(-0.0261866 -0.0328369 0.09)
(-0.024687 -0.0339787 0.04)
(-0.0231377 -0.0350521 0.04)
(-0.0231377 -0.0350521 0.09)
(-0.0215418 -0.0360549 0.04)
(-0.0215418 -0.0360549 0.09)
(0.042 -1.0287e-17 0.04)
(0.0419577 0.00188432 0.04)
(0.0419577 0.00188432 0.09)
(0.042 -1.0287e-17 0.09)
(-0.0199025 -0.036985 0.04)
(-0.0199025 -0.036985 0.09)
(0.0418309 0.00376485 0.04)
(0.0418309 0.00376485 0.09)
(-0.0182231 -0.0378407 0.04)
(-0.0182231 -0.0378407 0.09)
(0.0416199 0.0056378 0.04)
(0.0416199 0.0056378 0.09)
(-0.016507 -0.0386202 0.04)
(-0.016507 -0.0386202 0.09)
(0.041325 0.00749939 0.09)
(0.041325 0.00749939 0.04)
(-0.0147577 -0.0393219 0.04)
(-0.0147577 -0.0393219 0.09)
(0.040947 0.00934588 0.09)
(0.040947 0.00934588 0.04)
(-0.0129787 -0.0399444 0.04)
(-0.0129787 -0.0399444 0.09)
(0.0404864 0.0111735 0.09)
(0.0404864 0.0111735 0.04)
(-0.0111735 -0.0404864 0.04)
(-0.0111735 -0.0404864 0.09)
(0.0399444 0.0129787 0.09)
(0.0399444 0.0129787 0.04)
(-0.00934588 -0.040947 0.04)
(-0.00934588 -0.040947 0.09)
(0.0393219 0.0147577 0.09)
(0.0393219 0.0147577 0.04)
(-0.00749939 -0.041325 0.04)
(-0.00749939 -0.041325 0.09)
(0.0386202 0.016507 0.09)
(0.0386202 0.016507 0.04)
(-0.0056378 -0.0416199 0.04)
(-0.0056378 -0.0416199 0.09)
(0.0378407 0.0182231 0.09)
(0.0378407 0.0182231 0.04)
(-0.00376485 -0.0418309 0.04)
(-0.00376485 -0.0418309 0.09)
(0.036985 0.0199025 0.09)
(0.036985 0.0199025 0.04)
(-0.00188432 -0.0419577 0.04)
(-0.00188432 -0.0419577 0.09)
(0.0360549 0.0215418 0.09)
(0.0360549 0.0215418 0.04)
(-7.71527e-18 -0.042 0.09)
(-7.71527e-18 -0.042 0.04)
(0.0350521 0.0231377 0.09)
(0.0350521 0.0231377 0.04)
(0.00188432 -0.0419577 0.09)
(0.00188432 -0.0419577 0.04)
(0.0339787 0.024687 0.09)
(0.00376485 -0.0418309 0.09)
(0.0339787 0.024687 0.04)
(0.00376485 -0.0418309 0.04)
(0.0056378 -0.0416199 0.09)
(0.0328369 0.0261866 0.09)
(0.0328369 0.0261866 0.04)
(0.0056378 -0.0416199 0.04)
(0.00749939 -0.041325 0.09)
(0.031629 0.0276334 0.09)
(0.031629 0.0276334 0.04)
(0.00749939 -0.041325 0.04)
(0.00934588 -0.040947 0.09)
(0.0303574 0.0290246 0.09)
(0.00934588 -0.040947 0.04)
(0.0303574 0.0290246 0.04)
(0.0111735 -0.0404864 0.09)
(0.0111735 -0.0404864 0.04)
(0.0290246 0.0303574 0.04)
(0.0290246 0.0303574 0.09)
(0.0129787 -0.0399444 0.09)
(0.0129787 -0.0399444 0.04)
(0.0276334 0.031629 0.04)
(0.0276334 0.031629 0.09)
(0.0147577 -0.0393219 0.09)
(0.0147577 -0.0393219 0.04)
(0.0261866 0.0328369 0.04)
(0.0261866 0.0328369 0.09)
(0.016507 -0.0386202 0.09)
(0.016507 -0.0386202 0.04)
(0.024687 0.0339787 0.04)
(0.024687 0.0339787 0.09)
(0.0182231 -0.0378407 0.09)
(0.0182231 -0.0378407 0.04)
(0.0231377 0.0350521 0.04)
(0.0231377 0.0350521 0.09)
(0.0199025 -0.036985 0.09)
(0.0199025 -0.036985 0.04)
(0.0215418 0.0360549 0.04)
(0.0215418 0.0360549 0.09)
(0.0215418 -0.0360549 0.09)
(0.0215418 -0.0360549 0.04)
(0.0199025 0.036985 0.04)
(0.0199025 0.036985 0.09)
(0.0231377 -0.0350521 0.09)
(0.0231377 -0.0350521 0.04)
(0.0182231 0.0378407 0.04)
(0.024687 -0.0339787 0.09)
(0.0182231 0.0378407 0.09)
(0.024687 -0.0339787 0.04)
(0.016507 0.0386202 0.04)
(0.0261866 -0.0328369 0.09)
(0.0261866 -0.0328369 0.04)
(0.016507 0.0386202 0.09)
(0.0147577 0.0393219 0.04)
(0.0276334 -0.031629 0.04)
(0.0147577 0.0393219 0.09)
(0.0276334 -0.031629 0.09)
(0.0290246 -0.0303574 0.04)
(0.0129787 0.0399444 0.04)
(0.0290246 -0.0303574 0.09)
(0.0129787 0.0399444 0.09)
(0.0303574 -0.0290246 0.04)
(0.0303574 -0.0290246 0.09)
(0.0111735 0.0404864 0.04)
(0.0111735 0.0404864 0.09)
(0.031629 -0.0276334 0.04)
(0.031629 -0.0276334 0.09)
(0.00934588 0.040947 0.04)
(0.00934588 0.040947 0.09)
(0.0328369 -0.0261866 0.04)
(0.0328369 -0.0261866 0.09)
(0.00749939 0.041325 0.09)
(0.00749939 0.041325 0.04)
(0.0339787 -0.024687 0.04)
(0.0339787 -0.024687 0.09)
(0.0056378 0.0416199 0.09)
(0.0056378 0.0416199 0.04)
(0.0350521 -0.0231377 0.04)
(0.0350521 -0.0231377 0.09)
(0.00376485 0.0418309 0.09)
(0.00376485 0.0418309 0.04)
(0.0360549 -0.0215418 0.04)
(0.0360549 -0.0215418 0.09)
(0.00188432 0.0419577 0.09)
(0.00188432 0.0419577 0.04)
(0.036985 -0.0199025 0.04)
(0.036985 -0.0199025 0.09)
(2.57176e-18 0.042 0.09)
(2.57176e-18 0.042 0.04)
(0.0378407 -0.0182231 0.04)
(0.0378407 -0.0182231 0.09)
(0.0386202 -0.016507 0.09)
(-0.00188432 0.0419577 0.09)
(0.0386202 -0.016507 0.04)
(-0.00188432 0.0419577 0.04)
(0.0393219 -0.0147577 0.09)
(-0.00376485 0.0418309 0.09)
(0.0393219 -0.0147577 0.04)
(-0.00376485 0.0418309 0.04)
(0.0399444 -0.0129787 0.09)
(0.0399444 -0.0129787 0.04)
(-0.0056378 0.0416199 0.09)
(-0.0056378 0.0416199 0.04)
(0.0404864 -0.0111735 0.09)
(0.0404864 -0.0111735 0.04)
(-0.00749939 0.041325 0.09)
(-0.00749939 0.041325 0.04)
(0.040947 -0.00934588 0.09)
(0.040947 -0.00934588 0.04)
(-0.00934588 0.040947 0.09)
(-0.00934588 0.040947 0.04)
(0.041325 -0.00749939 0.09)
(0.041325 -0.00749939 0.04)
(-0.0111735 0.0404864 0.09)
(-0.0111735 0.0404864 0.04)
(0.0416199 -0.0056378 0.09)
(0.0416199 -0.0056378 0.04)
(-0.0129787 0.0399444 0.09)
(-0.0129787 0.0399444 0.04)
(0.0418309 -0.00376485 0.09)
(0.0418309 -0.00376485 0.04)
(-0.0147577 0.0393219 0.09)
(0.0419577 -0.00188432 0.09)
(-0.0147577 0.0393219 0.04)
(0.0419577 -0.00188432 0.04)
(-0.016507 0.0386202 0.09)
(-0.016507 0.0386202 0.04)
(-0.0182231 0.0378407 0.09)
(-0.0182231 0.0378407 0.04)
(-0.0199025 0.036985 0.09)
(-0.0199025 0.036985 0.04)
(-0.0215418 0.0360549 0.09)
(-0.0215418 0.0360549 0.04)
(-0.0231377 0.0350521 0.09)
(-0.0231377 0.0350521 0.04)
(-0.024687 0.0339787 0.09)
(-0.024687 0.0339787 0.04)
(-0.0261866 0.0328369 0.09)
(-0.0261866 0.0328369 0.04)
(-0.0276334 0.031629 0.09)
(-0.0276334 0.031629 0.04)
(-0.0290246 0.0303574 0.04)
(-0.0290246 0.0303574 0.09)
(-0.0303574 0.0290246 0.04)
(-0.0303574 0.0290246 0.09)
(-0.031629 0.0276334 0.04)
(-0.031629 0.0276334 0.09)
(-0.0328369 0.0261866 0.09)
(-0.0328369 0.0261866 0.04)
(-0.0339787 0.024687 0.09)
(-0.0339787 0.024687 0.04)
(-0.0350521 0.0231377 0.09)
(-0.0350521 0.0231377 0.04)
(-0.0360549 0.0215418 0.09)
(-0.0360549 0.0215418 0.04)
(-0.036985 0.0199025 0.09)
(-0.036985 0.0199025 0.04)
(-0.0378407 0.0182231 0.09)
(-0.0378407 0.0182231 0.04)
(-0.0386202 0.016507 0.04)
(-0.0386202 0.016507 0.09)
(-0.0393219 0.0147577 0.04)
(-0.0393219 0.0147577 0.09)
(-0.0399444 0.0129787 0.04)
(-0.0399444 0.0129787 0.09)
(-0.0404864 0.0111735 0.04)
(-0.0404864 0.0111735 0.09)
(-0.040947 0.00934588 0.04)
(-0.040947 0.00934588 0.09)
(-0.041325 0.00749939 0.04)
(-0.041325 0.00749939 0.09)
(-0.0416199 0.0056378 0.04)
(-0.0416199 0.0056378 0.09)
(-0.0418309 0.00376485 0.04)
(-0.0418309 0.00376485 0.09)
(-0.0419577 0.00188432 0.04)
(-0.0419577 0.00188432 0.09)
(-0.042 5.14352e-18 0.04)
(-0.042 5.14352e-18 0.09)
(-0.0419577 -0.00188432 0.04)
(-0.0419577 -0.00188432 0.09)
(-0.0418309 -0.00376485 0.04)
(-0.0418309 -0.00376485 0.09)
(-0.0416199 -0.0056378 0.04)
(-0.0416199 -0.0056378 0.09)
(-0.041325 -0.00749939 0.04)
(-0.041325 -0.00749939 0.09)
(-0.040947 -0.00934588 0.04)
(-0.040947 -0.00934588 0.09)
(-0.0404864 -0.0111735 0.04)
(-0.0404864 -0.0111735 0.09)
(-0.0399444 -0.0129787 0.04)
(-0.0399444 -0.0129787 0.09)
(-0.0393219 -0.0147577 0.04)
(-0.0393219 -0.0147577 0.09)
(-0.0386202 -0.016507 0.04)
(-0.0386202 -0.016507 0.09)
(-0.0378407 -0.0182231 0.09)
(-0.0378407 -0.0182231 0.04)
(-0.036985 -0.0199025 0.09)
(-0.036985 -0.0199025 0.04)
(-0.0360549 -0.0215418 0.09)
(-0.0360549 -0.0215418 0.04)
(-0.0350521 -0.0231377 0.09)
(-0.0350521 -0.0231377 0.04)
(-0.0339787 -0.024687 0.09)
(-0.0339787 -0.024687 0.04)
(-0.0328369 -0.0261866 0.09)
(-0.0328369 -0.0261866 0.04)
(-0.031629 -0.0276334 0.04)
(-0.031629 -0.0276334 0.09)
(-0.0303574 -0.0290246 0.04)
(-0.0303574 -0.0290246 0.09)
(-0.0290246 -0.0303574 0.04)
(-0.0290246 -0.0303574 0.09)
(-0.0276334 -0.031629 0.04)
(-0.0276334 -0.031629 0.09)
(-0.0261866 -0.0328369 0.04)
)


// edges:

280
(
(0 1)
(2 3)
(4 0)
(3 5)
(6 4)
(7 8)
(9 10)
(5 11)
(12 6)
(8 13)
(14 9)
(11 15)
(16 12)
(13 17)
(18 14)
(15 19)
(20 16)
(21 18)
(17 22)
(19 23)
(24 20)
(25 21)
(22 26)
(23 27)
(28 24)
(29 25)
(26 30)
(27 31)
(32 28)
(33 29)
(30 34)
(31 35)
(36 32)
(37 33)
(34 38)
(35 39)
(40 36)
(41 37)
(38 42)
(39 43)
(44 40)
(45 41)
(42 46)
(43 47)
(48 44)
(49 45)
(46 50)
(47 51)
(52 48)
(53 49)
(50 54)
(55 52)
(51 56)
(57 53)
(54 58)
(59 55)
(56 60)
(61 57)
(62 59)
(58 63)
(60 64)
(65 62)
(66 61)
(63 67)
(64 68)
(69 65)
(70 66)
(67 71)
(68 72)
(73 69)
(74 70)
(72 75)
(71 76)
(77 73)
(75 78)
(76 79)
(80 74)
(81 77)
(78 82)
(79 83)
(84 80)
(85 81)
(82 86)
(83 87)
(88 84)
(89 85)
(86 90)
(87 91)
(92 88)
(93 89)
(90 94)
(91 95)
(96 92)
(97 93)
(94 98)
(95 99)
(100 96)
(101 97)
(98 102)
(99 103)
(104 100)
(105 101)
(102 106)
(103 107)
(108 105)
(109 104)
(106 110)
(107 111)
(112 108)
(110 113)
(114 109)
(111 115)
(113 116)
(117 114)
(118 112)
(116 119)
(115 120)
(121 118)
(122 117)
(119 123)
(124 121)
(120 125)
(126 122)
(123 127)
(128 124)
(125 129)
(130 126)
(127 131)
(132 128)
(133 130)
(129 134)
(131 135)
(136 132)
(137 133)
(134 138)
(135 139)
(140 136)
(141 137)
(138 142)
(139 143)
(144 140)
(145 141)
(142 146)
(143 147)
(148 144)
(149 145)
(146 150)
(147 151)
(152 148)
(153 152)
(154 149)
(151 155)
(150 156)
(157 153)
(158 154)
(155 159)
(156 160)
(161 157)
(159 162)
(163 158)
(160 164)
(165 161)
(162 166)
(167 163)
(164 168)
(169 165)
(166 170)
(171 167)
(168 172)
(173 169)
(170 174)
(175 171)
(172 176)
(177 173)
(174 178)
(179 175)
(176 180)
(181 177)
(178 182)
(183 179)
(184 181)
(180 185)
(182 186)
(10 184)
(186 7)
(187 183)
(185 188)
(189 187)
(188 190)
(191 189)
(190 192)
(193 191)
(192 194)
(195 193)
(194 196)
(197 195)
(196 198)
(199 197)
(198 200)
(201 199)
(200 202)
(202 203)
(204 201)
(203 205)
(206 204)
(205 207)
(208 206)
(209 208)
(207 210)
(211 209)
(210 212)
(213 211)
(212 214)
(215 213)
(214 216)
(217 215)
(216 218)
(219 217)
(218 220)
(220 221)
(222 219)
(221 223)
(224 222)
(223 225)
(226 224)
(225 227)
(228 226)
(227 229)
(230 228)
(229 231)
(232 230)
(231 233)
(234 232)
(233 235)
(236 234)
(235 237)
(238 236)
(237 239)
(240 238)
(239 241)
(242 240)
(241 243)
(244 242)
(243 245)
(246 244)
(245 247)
(248 246)
(247 249)
(250 248)
(249 251)
(252 250)
(251 253)
(254 252)
(253 255)
(256 254)
(255 257)
(258 256)
(259 258)
(257 260)
(261 259)
(260 262)
(263 261)
(262 264)
(265 263)
(264 266)
(267 265)
(266 268)
(269 267)
(268 270)
(270 271)
(272 269)
(271 273)
(274 272)
(273 275)
(276 274)
(275 277)
(278 276)
(277 279)
(1 278)
(279 2)
)

// * * * * * * * * * * * * * * * * * * * * * * * * * * * * * * * * * * * * * //


// ************************************************************************* //
