/*--------------------------------*- C++ -*----------------------------------*\
| =========                 |                                                 |
| \\      /  F ield         | OpenFOAM: The Open Source CFD Toolbox           |
|  \\    /   O peration     | Version:  4.0                                   |
|   \\  /    A nd           | Web:      www.OpenFOAM.org                      |
|    \\/     M anipulation  |                                                 |
\*---------------------------------------------------------------------------*/
FoamFile
{
    version     2.0;
    format      ascii;
    class       featureEdgeMesh;
    location    "constant/triSurface";
    object      Outlet.eMesh;
}
// * * * * * * * * * * * * * * * * * * * * * * * * * * * * * * * * * * * * * //


// points:

177
(
(0.00267913 0.00422164 0.25)
(0.00364484 0.00342274 0.25)
(0.0291612 0.0342671 0.25)
(0.0286845 0.0346731 0.25)
(0.00154508 0.00475528 0.25)
(0.0282967 0.0351647 0.25)
(0.00438153 0.00240877 0.25)
(0.0297083 0.0339626 0.25)
(0.028013 0.0357228 0.25)
(0.00484292 0.00124345 0.25)
(0.0303045 0.0337714 0.25)
(-0.0383446 0.0480826 0.25)
(-0.0425004 0.0444519 0.25)
(0.00438153 -0.00240877 0.25)
(0.00364484 -0.00342274 0.25)
(0.00484379 0.051873 0.25)
(0.00407293 0.051675 0.25)
(0.0463139 -0.0404632 0.25)
(0.0497546 -0.0361488 0.25)
(-0.0338802 0.0513263 0.25)
(0.0278442 0.0363257 0.25)
(-0.00318712 0.00385257 0.25)
(-0.0021289 0.00452414 0.25)
(0.00288541 0.0579002 0.25)
(0.003675 0.058 0.25)
(0.00214543 0.0576073 0.25)
(0.0527946 -0.0315433 0.25)
(0.00446459 0.0579002 0.25)
(-0.0291429 0.0541566 0.25)
(0.00275919 0.0614381 0.25)
(-0.00275919 0.0614381 0.25)
(0.0309266 0.0337009 0.25)
(0.0554096 -0.0266838 0.25)
(0.051675 0.00407293 0.25)
(0.051873 0.00484379 0.25)
(0.00554122 0.0522564 0.25)
(0.0277971 0.0369501 0.25)
(0.0315505 0.0337539 0.25)
(0.0522564 0.00554122 0.25)
(0.0278735 0.0375716 0.25)
(0.032152 0.0339283 0.25)
(0.0528012 0.00612138 0.25)
(0.00612138 0.0528012 0.25)
(0.0575784 -0.0216096 0.25)
(0.0592837 -0.0163613 0.25)
(0.0280704 0.0381661 0.25)
(-0.013685 0.0599581 0.25)
(-0.0190046 0.05849 0.25)
(-0.024171 0.056551 0.25)
(0.0615 -1.50632e-17 0.25)
(0.0612524 0.00551282 0.25)
(0.0579002 0.00446459 0.25)
(0.058 0.003675 0.25)
(0.0576073 0.00520457 0.25)
(0.0571395 0.00584844 0.25)
(0.00484292 -0.00124345 0.25)
(0.0579002 0.00288541 0.25)
(0.0528012 0.00122862 0.25)
(0.0522564 0.00180878 0.25)
(0.00180878 0.0522564 0.25)
(0.00122862 0.0528012 0.25)
(0.0534731 0.000802174 0.25)
(0.0605117 -0.0109812 0.25)
(-0.00825535 0.0609434 0.25)
(0.000802174 0.0534731 0.25)
(0.0283801 0.0387104 0.25)
(0.005 -1.22465e-18 0.25)
(0.051873 0.00250621 0.25)
(-0.000936907 0.00491144 0.25)
(0.00250621 0.051873 0.25)
(0.0542301 0.000556238 0.25)
(0.000556238 0.0542301 0.25)
(0.051675 0.00327707 0.25)
(0.000313953 0.00499013 0.25)
(0.00327707 0.051675 0.25)
(0.000506265 0.0550244 0.25)
(0.00825535 0.0609434 0.25)
(0.00635574 0.0565262 0.25)
(0.0066946 0.0558061 0.25)
(0.00584844 0.0571395 0.25)
(0.00520457 0.0576073 0.25)
(0.0612524 -0.00551282 0.25)
(0.0550244 0.000506265 0.25)
(0.0558061 0.000655396 0.25)
(0.0565262 0.000994259 0.25)
(0.0605117 0.0109812 0.25)
(0.0565262 0.00635574 0.25)
(0.0558061 0.0066946 0.25)
(0.0550244 0.00684374 0.25)
(0.000994259 0.0565262 0.25)
(0.00150156 0.0571395 0.25)
(0.000655396 0.0558061 0.25)
(0.013685 0.0599581 0.25)
(0.00684374 0.0550244 0.25)
(0.00679376 0.0542301 0.25)
(0.0542301 0.00679376 0.25)
(0.0534731 0.00654783 0.25)
(0.0592837 0.0163613 0.25)
(0.00654783 0.0534731 0.25)
(0.0190046 0.05849 0.25)
(0.0575784 0.0216096 0.25)
(0.024171 0.056551 0.25)
(0.0287907 0.0391834 0.25)
(0.0327075 0.0342174 0.25)
(0.0554096 0.0266838 0.25)
(-0.0463139 -0.0404632 0.25)
(-0.0425004 -0.0444519 0.25)
(-0.0383446 -0.0480826 0.25)
(-0.0338802 -0.0513263 0.25)
(0.0291429 0.0541566 0.25)
(0.0292863 0.0395666 0.25)
(0.0298475 0.0398451 0.25)
(0.0527946 0.0315433 0.25)
(0.0335971 0.0350908 0.25)
(0.0331956 0.03461 0.25)
(0.0338802 0.0513263 0.25)
(-0.0527946 -0.0315433 0.25)
(-0.0497546 -0.0361488 0.25)
(0.0304526 0.040008 0.25)
(0.0310777 0.0400488 0.25)
(-0.00318712 -0.00385257 0.25)
(-0.00404508 -0.00293893 0.25)
(0.0316986 0.0399662 0.25)
(-0.0021289 -0.00452414 0.25)
(0.0497546 0.0361488 0.25)
(-0.0291429 -0.0541566 0.25)
(-0.024171 -0.056551 0.25)
(-0.0190046 -0.05849 0.25)
(0.0338965 0.0356412 0.25)
(0.0322908 0.0397635 0.25)
(0.0327826 0.0394832 0.25)
(0.0332163 0.0391207 0.25)
(0.0383446 0.0480826 0.25)
(0.0463139 0.0404632 0.25)
(0.034087 0.0374864 0.25)
(0.0341463 0.0368629 0.25)
(0.0340819 0.0362397 0.25)
(0.0571395 0.00150156 0.25)
(0.0576073 0.00214543 0.25)
(0.0425004 0.0444519 0.25)
(-0.0592837 -0.0163613 0.25)
(-0.0575784 -0.0216096 0.25)
(-0.0554096 -0.0266838 0.25)
(0.0336124 0.0386378 0.25)
(0.0339066 0.0380859 0.25)
(-0.00464888 -0.00184062 0.25)
(-0.000936907 -0.00491144 0.25)
(-0.013685 -0.0599581 0.25)
(-0.00825535 -0.0609434 0.25)
(-0.00275919 -0.0614381 0.25)
(-0.0615 7.53158e-18 0.25)
(-0.0612524 -0.00551282 0.25)
(-0.0605117 -0.0109812 0.25)
(-0.00496057 -0.000626666 0.25)
(0.000313953 -0.00499013 0.25)
(0.00275919 -0.0614381 0.25)
(0.00825535 -0.0609434 0.25)
(0.013685 -0.0599581 0.25)
(-0.0592837 0.0163613 0.25)
(-0.0605117 0.0109812 0.25)
(-0.0612524 0.00551282 0.25)
(-0.00496057 0.000626666 0.25)
(0.00154508 -0.00475528 0.25)
(0.0190046 -0.05849 0.25)
(0.024171 -0.056551 0.25)
(-0.00464888 0.00184062 0.25)
(-0.0527946 0.0315433 0.25)
(-0.0554096 0.0266838 0.25)
(-0.0575784 0.0216096 0.25)
(0.00267913 -0.00422164 0.25)
(0.0291429 -0.0541566 0.25)
(0.0338802 -0.0513263 0.25)
(0.0383446 -0.0480826 0.25)
(-0.0463139 0.0404632 0.25)
(-0.0497546 0.0361488 0.25)
(-0.00404508 0.00293893 0.25)
(0.0425004 -0.0444519 0.25)
)


// edges:

177
(
(0 1)
(2 3)
(4 0)
(3 5)
(1 6)
(7 2)
(5 8)
(6 9)
(10 7)
(11 12)
(13 14)
(15 16)
(17 18)
(19 11)
(8 20)
(21 22)
(23 24)
(25 23)
(18 26)
(24 27)
(28 19)
(29 30)
(31 10)
(26 32)
(33 34)
(35 15)
(20 36)
(37 31)
(34 38)
(36 39)
(40 37)
(38 41)
(42 35)
(43 44)
(39 45)
(46 47)
(47 48)
(49 50)
(51 52)
(53 51)
(54 53)
(55 13)
(52 56)
(57 58)
(32 43)
(48 28)
(59 60)
(61 57)
(44 62)
(63 46)
(60 64)
(45 65)
(66 55)
(58 67)
(22 68)
(69 59)
(70 61)
(64 71)
(9 66)
(67 72)
(68 73)
(74 69)
(71 75)
(76 29)
(77 78)
(79 77)
(80 79)
(62 81)
(27 80)
(82 70)
(72 33)
(73 4)
(16 74)
(83 82)
(84 83)
(50 85)
(86 54)
(87 86)
(88 87)
(89 90)
(91 89)
(75 91)
(30 63)
(92 76)
(93 94)
(78 93)
(95 88)
(96 95)
(85 97)
(98 42)
(94 98)
(99 92)
(90 25)
(97 100)
(41 96)
(101 99)
(65 102)
(103 40)
(100 104)
(105 106)
(106 107)
(107 108)
(109 101)
(102 110)
(110 111)
(104 112)
(113 114)
(114 103)
(115 109)
(116 117)
(111 118)
(117 105)
(118 119)
(120 121)
(119 122)
(123 120)
(112 124)
(108 125)
(125 126)
(126 127)
(128 113)
(129 130)
(130 131)
(132 115)
(122 129)
(124 133)
(81 49)
(134 135)
(135 136)
(137 84)
(136 128)
(138 137)
(56 138)
(139 132)
(133 139)
(140 141)
(141 142)
(131 143)
(142 116)
(143 144)
(144 134)
(121 145)
(146 123)
(127 147)
(147 148)
(148 149)
(150 151)
(151 152)
(152 140)
(145 153)
(154 146)
(149 155)
(155 156)
(156 157)
(158 159)
(159 160)
(160 150)
(153 161)
(162 154)
(157 163)
(163 164)
(161 165)
(166 167)
(167 168)
(168 158)
(169 162)
(164 170)
(170 171)
(171 172)
(173 174)
(174 166)
(165 175)
(172 176)
(14 169)
(175 21)
(12 173)
(176 17)
)

// * * * * * * * * * * * * * * * * * * * * * * * * * * * * * * * * * * * * * //


// ************************************************************************* //
